<net xmlns:xsi="http://www.w3.org/2001/XMLSchema-instance" version="1.16" junctionCornerDetail="5" limitTurnSpeed="5.50" xsi:noNamespaceSchemaLocation="http://sumo.dlr.de/xsd/net_file.xsd">
    <location netOffset="0.00,0.00" convBoundary="0.00,0.00,2000.0,0.00" origBoundary="-10000000000.00,-10000000000.00,10000000000.00,10000000000.00" projParameter="!"/>
    <edge id="E0" from="J0" to="J1" priority="-1">
    <lane id="E0_0" index="0" speed="22.356976806848365" length="2000.0" shape="0.00,-3.2 2000.0,-3.2"/>
<lane id="E0_1" index="1" speed="18.015325214567614" length="2000.0" shape="0.00,0.0 2000.0,0.0"/>
<lane id="E0_2" index="2" speed="16.82527381824786" length="2000.0" shape="0.00,3.2 2000.0,3.2"/>
<lane id="E0_3" index="3" speed="13.676387157272433" length="2000.0" shape="0.00,6.4 2000.0,6.4"/>
<junction id="J0" type="dead_end" x="0.00" y="0.00" incLanes="" intLanes="" shape="0.00,0.00 0.00,12.8"/>
<junction id="J1" type="dead_end" x="2000.0" y="0.00" incLanes="E0_0 E0_1 E0_2 E0_3" intLanes="" shape="2000.0,12.8 2000.0,0.00"/>
<vehicleTypes>
<vType id="taxi" accel="0.8" decel="4.5" speedDev="0.2" sigma="0.5" length="3.0" maxSpeed="25.0" guiShape="passenger"/>
<vType id="emv" vClass="emergency"/>
<vType id="taxi_v0" accel="0.8" decel="4.5" speedDev="0.2" sigma="0.5" length="3.0" maxSpeed="12.29014685857685" guiShape="passenger"/>
<vType id="taxi_v1" accel="0.8" decel="4.5" speedDev="0.2" sigma="0.5" length="3.0" maxSpeed="15.621114222268648" guiShape="passenger"/>
<vType id="taxi_v2" accel="0.8" decel="4.5" speedDev="0.2" sigma="0.5" length="3.0" maxSpeed="8.763220821906991" guiShape="passenger"/>
<vType id="taxi_v3" accel="0.8" decel="4.5" speedDev="0.2" sigma="0.5" length="3.0" maxSpeed="9.53226015034917" guiShape="passenger"/>
<vType id="taxi_v4" accel="0.8" decel="4.5" speedDev="0.2" sigma="0.5" length="3.0" maxSpeed="8.94169186502151" guiShape="passenger"/>
<vType id="taxi_v5" accel="0.8" decel="4.5" speedDev="0.2" sigma="0.5" length="3.0" maxSpeed="7.024951108671316" guiShape="passenger"/>
<vType id="taxi_v6" accel="0.8" decel="4.5" speedDev="0.2" sigma="0.5" length="3.0" maxSpeed="6.392678368137647" guiShape="passenger"/>
<vType id="taxi_v7" accel="0.8" decel="4.5" speedDev="0.2" sigma="0.5" length="3.0" maxSpeed="11.266070029719216" guiShape="passenger"/>
<vType id="taxi_v8" accel="0.8" decel="4.5" speedDev="0.2" sigma="0.5" length="3.0" maxSpeed="8.865774616924933" guiShape="passenger"/>
<vType id="taxi_v9" accel="0.8" decel="4.5" speedDev="0.2" sigma="0.5" length="3.0" maxSpeed="11.998682382447203" guiShape="passenger"/>
<vType id="taxi_v10" accel="0.8" decel="4.5" speedDev="0.2" sigma="0.5" length="3.0" maxSpeed="16.234167232739594" guiShape="passenger"/>
<vType id="taxi_v11" accel="0.8" decel="4.5" speedDev="0.2" sigma="0.5" length="3.0" maxSpeed="16.60819483480868" guiShape="passenger"/>
<vType id="taxi_v12" accel="0.8" decel="4.5" speedDev="0.2" sigma="0.5" length="3.0" maxSpeed="14.20719463960762" guiShape="passenger"/>
<vType id="taxi_v13" accel="0.8" decel="4.5" speedDev="0.2" sigma="0.5" length="3.0" maxSpeed="9.233879899086013" guiShape="passenger"/>
<vType id="taxi_v14" accel="0.8" decel="4.5" speedDev="0.2" sigma="0.5" length="3.0" maxSpeed="9.821385102023184" guiShape="passenger"/>
<vType id="taxi_v15" accel="0.8" decel="4.5" speedDev="0.2" sigma="0.5" length="3.0" maxSpeed="15.540435040421205" guiShape="passenger"/>
<vType id="taxi_v16" accel="0.8" decel="4.5" speedDev="0.2" sigma="0.5" length="3.0" maxSpeed="8.15481624955278" guiShape="passenger"/>
<vType id="taxi_v17" accel="0.8" decel="4.5" speedDev="0.2" sigma="0.5" length="3.0" maxSpeed="14.71103890807977" guiShape="passenger"/>
<vType id="taxi_v18" accel="0.8" decel="4.5" speedDev="0.2" sigma="0.5" length="3.0" maxSpeed="8.281788044339187" guiShape="passenger"/>
<vType id="taxi_v19" accel="0.8" decel="4.5" speedDev="0.2" sigma="0.5" length="3.0" maxSpeed="10.532114391478967" guiShape="passenger"/>
<vType id="taxi_v20" accel="0.8" decel="4.5" speedDev="0.2" sigma="0.5" length="3.0" maxSpeed="11.74957214726124" guiShape="passenger"/>
<vType id="taxi_v21" accel="0.8" decel="4.5" speedDev="0.2" sigma="0.5" length="3.0" maxSpeed="16.218537539490057" guiShape="passenger"/>
<vType id="taxi_v22" accel="0.8" decel="4.5" speedDev="0.2" sigma="0.5" length="3.0" maxSpeed="13.684140780141037" guiShape="passenger"/>
<vType id="taxi_v23" accel="0.8" decel="4.5" speedDev="0.2" sigma="0.5" length="3.0" maxSpeed="14.883512990393648" guiShape="passenger"/>
<vType id="taxi_v24" accel="0.8" decel="4.5" speedDev="0.2" sigma="0.5" length="3.0" maxSpeed="9.437262783633994" guiShape="passenger"/>
<vType id="taxi_v25" accel="0.8" decel="4.5" speedDev="0.2" sigma="0.5" length="3.0" maxSpeed="9.436735388795716" guiShape="passenger"/>
<vType id="taxi_v26" accel="0.8" decel="4.5" speedDev="0.2" sigma="0.5" length="3.0" maxSpeed="15.22188128283628" guiShape="passenger"/>
<vType id="taxi_v27" accel="0.8" decel="4.5" speedDev="0.2" sigma="0.5" length="3.0" maxSpeed="12.05766476407538" guiShape="passenger"/>
<vType id="taxi_v28" accel="0.8" decel="4.5" speedDev="0.2" sigma="0.5" length="3.0" maxSpeed="13.550476939415635" guiShape="passenger"/>
<vType id="taxi_v29" accel="0.8" decel="4.5" speedDev="0.2" sigma="0.5" length="3.0" maxSpeed="6.646853333922751" guiShape="passenger"/>
<vType id="taxi_v30" accel="0.8" decel="4.5" speedDev="0.2" sigma="0.5" length="3.0" maxSpeed="6.244052620266752" guiShape="passenger"/>
<vType id="taxi_v31" accel="0.8" decel="4.5" speedDev="0.2" sigma="0.5" length="3.0" maxSpeed="10.30537016305535" guiShape="passenger"/>
<vType id="taxi_v32" accel="0.8" decel="4.5" speedDev="0.2" sigma="0.5" length="3.0" maxSpeed="8.967564611914778" guiShape="passenger"/>
<vType id="taxi_v33" accel="0.8" decel="4.5" speedDev="0.2" sigma="0.5" length="3.0" maxSpeed="8.51259566156104" guiShape="passenger"/>
<vType id="taxi_v34" accel="0.8" decel="4.5" speedDev="0.2" sigma="0.5" length="3.0" maxSpeed="14.620777970732783" guiShape="passenger"/>
<vType id="taxi_v35" accel="0.8" decel="4.5" speedDev="0.2" sigma="0.5" length="3.0" maxSpeed="15.776872704160015" guiShape="passenger"/>
<vType id="taxi_v36" accel="0.8" decel="4.5" speedDev="0.2" sigma="0.5" length="3.0" maxSpeed="8.047653733940635" guiShape="passenger"/>
<vType id="taxi_v37" accel="0.8" decel="4.5" speedDev="0.2" sigma="0.5" length="3.0" maxSpeed="6.670385864750323" guiShape="passenger"/>
<vType id="taxi_v38" accel="0.8" decel="4.5" speedDev="0.2" sigma="0.5" length="3.0" maxSpeed="7.654263500888497" guiShape="passenger"/>
<vType id="taxi_v39" accel="0.8" decel="4.5" speedDev="0.2" sigma="0.5" length="3.0" maxSpeed="7.602315833924042" guiShape="passenger"/>
<vType id="taxi_v40" accel="0.8" decel="4.5" speedDev="0.2" sigma="0.5" length="3.0" maxSpeed="13.599384610094923" guiShape="passenger"/>
<vType id="taxi_v41" accel="0.8" decel="4.5" speedDev="0.2" sigma="0.5" length="3.0" maxSpeed="9.797670443186055" guiShape="passenger"/>
<vType id="taxi_v42" accel="0.8" decel="4.5" speedDev="0.2" sigma="0.5" length="3.0" maxSpeed="16.429228657923797" guiShape="passenger"/>
<vType id="taxi_v43" accel="0.8" decel="4.5" speedDev="0.2" sigma="0.5" length="3.0" maxSpeed="5.762961952756529" guiShape="passenger"/>
<vType id="taxi_v44" accel="0.8" decel="4.5" speedDev="0.2" sigma="0.5" length="3.0" maxSpeed="11.503300235205286" guiShape="passenger"/>
<vType id="taxi_v45" accel="0.8" decel="4.5" speedDev="0.2" sigma="0.5" length="3.0" maxSpeed="7.033432368008632" guiShape="passenger"/>
<vType id="taxi_v46" accel="0.8" decel="4.5" speedDev="0.2" sigma="0.5" length="3.0" maxSpeed="14.989258144370172" guiShape="passenger"/>
<vType id="taxi_v47" accel="0.8" decel="4.5" speedDev="0.2" sigma="0.5" length="3.0" maxSpeed="9.791865009961967" guiShape="passenger"/>
<vType id="taxi_v48" accel="0.8" decel="4.5" speedDev="0.2" sigma="0.5" length="3.0" maxSpeed="8.229615101507212" guiShape="passenger"/>
<vType id="taxi_v49" accel="0.8" decel="4.5" speedDev="0.2" sigma="0.5" length="3.0" maxSpeed="12.0335759969838" guiShape="passenger"/>
<vType id="taxi_v50" accel="0.8" decel="4.5" speedDev="0.2" sigma="0.5" length="3.0" maxSpeed="15.25225590872111" guiShape="passenger"/>
<vType id="taxi_v51" accel="0.8" decel="4.5" speedDev="0.2" sigma="0.5" length="3.0" maxSpeed="5.7256133154831605" guiShape="passenger"/>
<vType id="taxi_v52" accel="0.8" decel="4.5" speedDev="0.2" sigma="0.5" length="3.0" maxSpeed="8.115791636925039" guiShape="passenger"/>
<vType id="taxi_v53" accel="0.8" decel="4.5" speedDev="0.2" sigma="0.5" length="3.0" maxSpeed="15.588105150879608" guiShape="passenger"/>
<vType id="taxi_v54" accel="0.8" decel="4.5" speedDev="0.2" sigma="0.5" length="3.0" maxSpeed="10.22454032551479" guiShape="passenger"/>
<vType id="taxi_v55" accel="0.8" decel="4.5" speedDev="0.2" sigma="0.5" length="3.0" maxSpeed="6.625438753440435" guiShape="passenger"/>
<vType id="taxi_v56" accel="0.8" decel="4.5" speedDev="0.2" sigma="0.5" length="3.0" maxSpeed="15.902967113187747" guiShape="passenger"/>
<vType id="taxi_v57" accel="0.8" decel="4.5" speedDev="0.2" sigma="0.5" length="3.0" maxSpeed="16.07746270097828" guiShape="passenger"/>
<vType id="taxi_v58" accel="0.8" decel="4.5" speedDev="0.2" sigma="0.5" length="3.0" maxSpeed="10.297221429513336" guiShape="passenger"/>
<vType id="taxi_v59" accel="0.8" decel="4.5" speedDev="0.2" sigma="0.5" length="3.0" maxSpeed="7.732321122621368" guiShape="passenger"/>
<vType id="taxi_v60" accel="0.8" decel="4.5" speedDev="0.2" sigma="0.5" length="3.0" maxSpeed="5.851958731183442" guiShape="passenger"/>
<vType id="taxi_v61" accel="0.8" decel="4.5" speedDev="0.2" sigma="0.5" length="3.0" maxSpeed="13.807973620471296" guiShape="passenger"/>
<vType id="taxi_v62" accel="0.8" decel="4.5" speedDev="0.2" sigma="0.5" length="3.0" maxSpeed="14.126160435287176" guiShape="passenger"/>
<vType id="taxi_v63" accel="0.8" decel="4.5" speedDev="0.2" sigma="0.5" length="3.0" maxSpeed="13.751215758365625" guiShape="passenger"/>
<vType id="taxi_v64" accel="0.8" decel="4.5" speedDev="0.2" sigma="0.5" length="3.0" maxSpeed="13.236379316837104" guiShape="passenger"/>
<vType id="taxi_v65" accel="0.8" decel="4.5" speedDev="0.2" sigma="0.5" length="3.0" maxSpeed="9.481909939612413" guiShape="passenger"/>
<vType id="taxi_v66" accel="0.8" decel="4.5" speedDev="0.2" sigma="0.5" length="3.0" maxSpeed="8.748972885438388" guiShape="passenger"/>
<vType id="taxi_v67" accel="0.8" decel="4.5" speedDev="0.2" sigma="0.5" length="3.0" maxSpeed="11.943149609784832" guiShape="passenger"/>
<vType id="taxi_v68" accel="0.8" decel="4.5" speedDev="0.2" sigma="0.5" length="3.0" maxSpeed="14.372683895508786" guiShape="passenger"/>
<vType id="taxi_v69" accel="0.8" decel="4.5" speedDev="0.2" sigma="0.5" length="3.0" maxSpeed="10.78401090032844" guiShape="passenger"/>
<vType id="taxi_v70" accel="0.8" decel="4.5" speedDev="0.2" sigma="0.5" length="3.0" maxSpeed="11.280220636072801" guiShape="passenger"/>
<vType id="taxi_v71" accel="0.8" decel="4.5" speedDev="0.2" sigma="0.5" length="3.0" maxSpeed="9.875069141103292" guiShape="passenger"/>
<vType id="taxi_v72" accel="0.8" decel="4.5" speedDev="0.2" sigma="0.5" length="3.0" maxSpeed="14.693586536032198" guiShape="passenger"/>
<vType id="taxi_v73" accel="0.8" decel="4.5" speedDev="0.2" sigma="0.5" length="3.0" maxSpeed="16.18328159072155" guiShape="passenger"/>
<vType id="taxi_v74" accel="0.8" decel="4.5" speedDev="0.2" sigma="0.5" length="3.0" maxSpeed="8.603568042436681" guiShape="passenger"/>
<vType id="taxi_v75" accel="0.8" decel="4.5" speedDev="0.2" sigma="0.5" length="3.0" maxSpeed="16.2212583286922" guiShape="passenger"/>
<vType id="taxi_v76" accel="0.8" decel="4.5" speedDev="0.2" sigma="0.5" length="3.0" maxSpeed="14.58794702260435" guiShape="passenger"/>
<vType id="taxi_v77" accel="0.8" decel="4.5" speedDev="0.2" sigma="0.5" length="3.0" maxSpeed="10.046961768319184" guiShape="passenger"/>
<vType id="taxi_v78" accel="0.8" decel="4.5" speedDev="0.2" sigma="0.5" length="3.0" maxSpeed="8.369685220712002" guiShape="passenger"/>
<vType id="taxi_v79" accel="0.8" decel="4.5" speedDev="0.2" sigma="0.5" length="3.0" maxSpeed="13.163321459577581" guiShape="passenger"/>
<vType id="taxi_v80" accel="0.8" decel="4.5" speedDev="0.2" sigma="0.5" length="3.0" maxSpeed="11.584888497590583" guiShape="passenger"/>
<vType id="taxi_v81" accel="0.8" decel="4.5" speedDev="0.2" sigma="0.5" length="3.0" maxSpeed="12.121406700825606" guiShape="passenger"/>
<vType id="taxi_v82" accel="0.8" decel="4.5" speedDev="0.2" sigma="0.5" length="3.0" maxSpeed="16.59808132087399" guiShape="passenger"/>
<vType id="taxi_v83" accel="0.8" decel="4.5" speedDev="0.2" sigma="0.5" length="3.0" maxSpeed="16.455548646219214" guiShape="passenger"/>
<vType id="taxi_v84" accel="0.8" decel="4.5" speedDev="0.2" sigma="0.5" length="3.0" maxSpeed="13.371245604765122" guiShape="passenger"/>
<vType id="taxi_v85" accel="0.8" decel="4.5" speedDev="0.2" sigma="0.5" length="3.0" maxSpeed="11.315895037397647" guiShape="passenger"/>
<vType id="taxi_v86" accel="0.8" decel="4.5" speedDev="0.2" sigma="0.5" length="3.0" maxSpeed="7.406760169963888" guiShape="passenger"/>
<vType id="taxi_v87" accel="0.8" decel="4.5" speedDev="0.2" sigma="0.5" length="3.0" maxSpeed="6.391982054612139" guiShape="passenger"/>
<vType id="taxi_v88" accel="0.8" decel="4.5" speedDev="0.2" sigma="0.5" length="3.0" maxSpeed="14.67151267416841" guiShape="passenger"/>
<vType id="taxi_v89" accel="0.8" decel="4.5" speedDev="0.2" sigma="0.5" length="3.0" maxSpeed="8.395179007449322" guiShape="passenger"/>
<vType id="taxi_v90" accel="0.8" decel="4.5" speedDev="0.2" sigma="0.5" length="3.0" maxSpeed="13.128533131929709" guiShape="passenger"/>
<vType id="taxi_v91" accel="0.8" decel="4.5" speedDev="0.2" sigma="0.5" length="3.0" maxSpeed="8.934385207799549" guiShape="passenger"/>
<vType id="taxi_v92" accel="0.8" decel="4.5" speedDev="0.2" sigma="0.5" length="3.0" maxSpeed="7.93958047597968" guiShape="passenger"/>
<vType id="taxi_v93" accel="0.8" decel="4.5" speedDev="0.2" sigma="0.5" length="3.0" maxSpeed="13.154166749181183" guiShape="passenger"/>
<vType id="taxi_v94" accel="0.8" decel="4.5" speedDev="0.2" sigma="0.5" length="3.0" maxSpeed="7.461981087831953" guiShape="passenger"/>
<vType id="taxi_v95" accel="0.8" decel="4.5" speedDev="0.2" sigma="0.5" length="3.0" maxSpeed="6.338050120625629" guiShape="passenger"/>
<vType id="taxi_v96" accel="0.8" decel="4.5" speedDev="0.2" sigma="0.5" length="3.0" maxSpeed="16.61795971354369" guiShape="passenger"/>
<vType id="taxi_v97" accel="0.8" decel="4.5" speedDev="0.2" sigma="0.5" length="3.0" maxSpeed="9.989057775958614" guiShape="passenger"/>
<vType id="taxi_v98" accel="0.8" decel="4.5" speedDev="0.2" sigma="0.5" length="3.0" maxSpeed="9.562237137628891" guiShape="passenger"/>
<vType id="taxi_v99" accel="0.8" decel="4.5" speedDev="0.2" sigma="0.5" length="3.0" maxSpeed="14.32881645776053" guiShape="passenger"/>
<vType id="taxi_v100" accel="0.8" decel="4.5" speedDev="0.2" sigma="0.5" length="3.0" maxSpeed="7.901424301961562" guiShape="passenger"/>
<vType id="taxi_v101" accel="0.8" decel="4.5" speedDev="0.2" sigma="0.5" length="3.0" maxSpeed="14.37674085947269" guiShape="passenger"/>
<vType id="taxi_v102" accel="0.8" decel="4.5" speedDev="0.2" sigma="0.5" length="3.0" maxSpeed="8.139433768552976" guiShape="passenger"/>
<vType id="taxi_v103" accel="0.8" decel="4.5" speedDev="0.2" sigma="0.5" length="3.0" maxSpeed="13.629570846598947" guiShape="passenger"/>
<vType id="taxi_v104" accel="0.8" decel="4.5" speedDev="0.2" sigma="0.5" length="3.0" maxSpeed="13.908941037460119" guiShape="passenger"/>
<vType id="taxi_v105" accel="0.8" decel="4.5" speedDev="0.2" sigma="0.5" length="3.0" maxSpeed="6.761690723008427" guiShape="passenger"/>
<vType id="taxi_v106" accel="0.8" decel="4.5" speedDev="0.2" sigma="0.5" length="3.0" maxSpeed="9.811842635764835" guiShape="passenger"/>
<vType id="taxi_v107" accel="0.8" decel="4.5" speedDev="0.2" sigma="0.5" length="3.0" maxSpeed="14.96303459747038" guiShape="passenger"/>
<vType id="taxi_v108" accel="0.8" decel="4.5" speedDev="0.2" sigma="0.5" length="3.0" maxSpeed="11.014207394233058" guiShape="passenger"/>
<vType id="taxi_v109" accel="0.8" decel="4.5" speedDev="0.2" sigma="0.5" length="3.0" maxSpeed="10.358463839184479" guiShape="passenger"/>
<vType id="taxi_v110" accel="0.8" decel="4.5" speedDev="0.2" sigma="0.5" length="3.0" maxSpeed="6.293836432270103" guiShape="passenger"/>
<vType id="taxi_v111" accel="0.8" decel="4.5" speedDev="0.2" sigma="0.5" length="3.0" maxSpeed="7.2784623608156895" guiShape="passenger"/>
<vType id="taxi_v112" accel="0.8" decel="4.5" speedDev="0.2" sigma="0.5" length="3.0" maxSpeed="16.072492552484817" guiShape="passenger"/>
<vType id="taxi_v113" accel="0.8" decel="4.5" speedDev="0.2" sigma="0.5" length="3.0" maxSpeed="16.546917298917972" guiShape="passenger"/>
<vType id="taxi_v114" accel="0.8" decel="4.5" speedDev="0.2" sigma="0.5" length="3.0" maxSpeed="11.334268111093808" guiShape="passenger"/>
<vType id="taxi_v115" accel="0.8" decel="4.5" speedDev="0.2" sigma="0.5" length="3.0" maxSpeed="12.92548973729053" guiShape="passenger"/>
<vType id="taxi_v116" accel="0.8" decel="4.5" speedDev="0.2" sigma="0.5" length="3.0" maxSpeed="7.029664882757691" guiShape="passenger"/>
<vType id="taxi_v117" accel="0.8" decel="4.5" speedDev="0.2" sigma="0.5" length="3.0" maxSpeed="16.05586614824908" guiShape="passenger"/>
<vType id="taxi_v118" accel="0.8" decel="4.5" speedDev="0.2" sigma="0.5" length="3.0" maxSpeed="12.538740704438908" guiShape="passenger"/>
<vType id="taxi_v119" accel="0.8" decel="4.5" speedDev="0.2" sigma="0.5" length="3.0" maxSpeed="13.652807102583436" guiShape="passenger"/>
<vType id="taxi_v120" accel="0.8" decel="4.5" speedDev="0.2" sigma="0.5" length="3.0" maxSpeed="15.088396285326915" guiShape="passenger"/>
<vType id="taxi_v121" accel="0.8" decel="4.5" speedDev="0.2" sigma="0.5" length="3.0" maxSpeed="8.217108679025717" guiShape="passenger"/>
<vType id="taxi_v122" accel="0.8" decel="4.5" speedDev="0.2" sigma="0.5" length="3.0" maxSpeed="13.308421909439978" guiShape="passenger"/>
<vType id="taxi_v123" accel="0.8" decel="4.5" speedDev="0.2" sigma="0.5" length="3.0" maxSpeed="10.785668305106855" guiShape="passenger"/>
<vType id="taxi_v124" accel="0.8" decel="4.5" speedDev="0.2" sigma="0.5" length="3.0" maxSpeed="8.925168365317843" guiShape="passenger"/>
<vType id="taxi_v125" accel="0.8" decel="4.5" speedDev="0.2" sigma="0.5" length="3.0" maxSpeed="7.483067256060531" guiShape="passenger"/>
<vType id="taxi_v126" accel="0.8" decel="4.5" speedDev="0.2" sigma="0.5" length="3.0" maxSpeed="13.512616182808475" guiShape="passenger"/>
<vType id="taxi_v127" accel="0.8" decel="4.5" speedDev="0.2" sigma="0.5" length="3.0" maxSpeed="7.647319223703735" guiShape="passenger"/>
<vType id="taxi_v128" accel="0.8" decel="4.5" speedDev="0.2" sigma="0.5" length="3.0" maxSpeed="7.404686880628521" guiShape="passenger"/>
<vType id="taxi_v129" accel="0.8" decel="4.5" speedDev="0.2" sigma="0.5" length="3.0" maxSpeed="9.783824469639436" guiShape="passenger"/>
<vType id="taxi_v130" accel="0.8" decel="4.5" speedDev="0.2" sigma="0.5" length="3.0" maxSpeed="10.318235186074787" guiShape="passenger"/>
<vType id="taxi_v131" accel="0.8" decel="4.5" speedDev="0.2" sigma="0.5" length="3.0" maxSpeed="10.471656389337502" guiShape="passenger"/>
<vType id="taxi_v132" accel="0.8" decel="4.5" speedDev="0.2" sigma="0.5" length="3.0" maxSpeed="8.040260470309757" guiShape="passenger"/>
<vType id="taxi_v133" accel="0.8" decel="4.5" speedDev="0.2" sigma="0.5" length="3.0" maxSpeed="16.39966455265982" guiShape="passenger"/>
<vType id="taxi_v134" accel="0.8" decel="4.5" speedDev="0.2" sigma="0.5" length="3.0" maxSpeed="6.644361760728218" guiShape="passenger"/>
<vType id="taxi_v135" accel="0.8" decel="4.5" speedDev="0.2" sigma="0.5" length="3.0" maxSpeed="14.409047849682135" guiShape="passenger"/>
<vType id="taxi_v136" accel="0.8" decel="4.5" speedDev="0.2" sigma="0.5" length="3.0" maxSpeed="13.938347939104602" guiShape="passenger"/>
<vType id="taxi_v137" accel="0.8" decel="4.5" speedDev="0.2" sigma="0.5" length="3.0" maxSpeed="10.64259788678976" guiShape="passenger"/>
<vType id="taxi_v138" accel="0.8" decel="4.5" speedDev="0.2" sigma="0.5" length="3.0" maxSpeed="8.90512045353174" guiShape="passenger"/>
<vType id="taxi_v139" accel="0.8" decel="4.5" speedDev="0.2" sigma="0.5" length="3.0" maxSpeed="14.914899304206774" guiShape="passenger"/>
<vType id="taxi_v140" accel="0.8" decel="4.5" speedDev="0.2" sigma="0.5" length="3.0" maxSpeed="13.862938122753285" guiShape="passenger"/>
<vType id="taxi_v141" accel="0.8" decel="4.5" speedDev="0.2" sigma="0.5" length="3.0" maxSpeed="8.306700839349675" guiShape="passenger"/>
<vType id="taxi_v142" accel="0.8" decel="4.5" speedDev="0.2" sigma="0.5" length="3.0" maxSpeed="15.30896050177573" guiShape="passenger"/>
<vType id="taxi_v143" accel="0.8" decel="4.5" speedDev="0.2" sigma="0.5" length="3.0" maxSpeed="12.646233623989588" guiShape="passenger"/>
<vType id="taxi_v144" accel="0.8" decel="4.5" speedDev="0.2" sigma="0.5" length="3.0" maxSpeed="7.472639378555428" guiShape="passenger"/>
<vType id="taxi_v145" accel="0.8" decel="4.5" speedDev="0.2" sigma="0.5" length="3.0" maxSpeed="16.18414744349346" guiShape="passenger"/>
<vType id="taxi_v146" accel="0.8" decel="4.5" speedDev="0.2" sigma="0.5" length="3.0" maxSpeed="9.606890895855507" guiShape="passenger"/>
<vType id="taxi_v147" accel="0.8" decel="4.5" speedDev="0.2" sigma="0.5" length="3.0" maxSpeed="7.187989094375207" guiShape="passenger"/>
<vType id="taxi_v148" accel="0.8" decel="4.5" speedDev="0.2" sigma="0.5" length="3.0" maxSpeed="16.192976347810294" guiShape="passenger"/>
<vType id="taxi_v149" accel="0.8" decel="4.5" speedDev="0.2" sigma="0.5" length="3.0" maxSpeed="13.929619065517134" guiShape="passenger"/>
<vType id="taxi_v150" accel="0.8" decel="4.5" speedDev="0.2" sigma="0.5" length="3.0" maxSpeed="10.713716798004398" guiShape="passenger"/>
<vType id="taxi_v151" accel="0.8" decel="4.5" speedDev="0.2" sigma="0.5" length="3.0" maxSpeed="11.676489598270315" guiShape="passenger"/>
<vType id="taxi_v152" accel="0.8" decel="4.5" speedDev="0.2" sigma="0.5" length="3.0" maxSpeed="11.180248593050433" guiShape="passenger"/>
<vType id="taxi_v153" accel="0.8" decel="4.5" speedDev="0.2" sigma="0.5" length="3.0" maxSpeed="11.175050643457244" guiShape="passenger"/>
<vType id="taxi_v154" accel="0.8" decel="4.5" speedDev="0.2" sigma="0.5" length="3.0" maxSpeed="6.500943038032334" guiShape="passenger"/>
<vType id="taxi_v155" accel="0.8" decel="4.5" speedDev="0.2" sigma="0.5" length="3.0" maxSpeed="12.671745241871614" guiShape="passenger"/>
<vType id="taxi_v156" accel="0.8" decel="4.5" speedDev="0.2" sigma="0.5" length="3.0" maxSpeed="9.515725857219955" guiShape="passenger"/>
<vType id="taxi_v157" accel="0.8" decel="4.5" speedDev="0.2" sigma="0.5" length="3.0" maxSpeed="7.413667558296465" guiShape="passenger"/>
<vType id="taxi_v158" accel="0.8" decel="4.5" speedDev="0.2" sigma="0.5" length="3.0" maxSpeed="9.558273214356545" guiShape="passenger"/>
<vType id="taxi_v159" accel="0.8" decel="4.5" speedDev="0.2" sigma="0.5" length="3.0" maxSpeed="10.003329813148572" guiShape="passenger"/>
<vType id="taxi_v160" accel="0.8" decel="4.5" speedDev="0.2" sigma="0.5" length="3.0" maxSpeed="6.152148277272619" guiShape="passenger"/>
<vType id="taxi_v161" accel="0.8" decel="4.5" speedDev="0.2" sigma="0.5" length="3.0" maxSpeed="8.69465147882346" guiShape="passenger"/>
<vType id="taxi_v162" accel="0.8" decel="4.5" speedDev="0.2" sigma="0.5" length="3.0" maxSpeed="8.97912089720803" guiShape="passenger"/>
<vType id="taxi_v163" accel="0.8" decel="4.5" speedDev="0.2" sigma="0.5" length="3.0" maxSpeed="7.187985747641345" guiShape="passenger"/>
<vType id="taxi_v164" accel="0.8" decel="4.5" speedDev="0.2" sigma="0.5" length="3.0" maxSpeed="10.25375103269496" guiShape="passenger"/>
<vType id="taxi_v165" accel="0.8" decel="4.5" speedDev="0.2" sigma="0.5" length="3.0" maxSpeed="6.125152840435129" guiShape="passenger"/>
<vType id="taxi_v166" accel="0.8" decel="4.5" speedDev="0.2" sigma="0.5" length="3.0" maxSpeed="11.01423402344653" guiShape="passenger"/>
<vType id="taxi_v167" accel="0.8" decel="4.5" speedDev="0.2" sigma="0.5" length="3.0" maxSpeed="9.343318825301708" guiShape="passenger"/>
<vType id="taxi_v168" accel="0.8" decel="4.5" speedDev="0.2" sigma="0.5" length="3.0" maxSpeed="8.797779032479166" guiShape="passenger"/>
<vType id="taxi_v169" accel="0.8" decel="4.5" speedDev="0.2" sigma="0.5" length="3.0" maxSpeed="12.812914550184974" guiShape="passenger"/>
<vType id="taxi_v170" accel="0.8" decel="4.5" speedDev="0.2" sigma="0.5" length="3.0" maxSpeed="12.631630789778953" guiShape="passenger"/>
<vType id="taxi_v171" accel="0.8" decel="4.5" speedDev="0.2" sigma="0.5" length="3.0" maxSpeed="6.875106329783172" guiShape="passenger"/>
<vType id="taxi_v172" accel="0.8" decel="4.5" speedDev="0.2" sigma="0.5" length="3.0" maxSpeed="6.8651547241805515" guiShape="passenger"/>
<vType id="taxi_v173" accel="0.8" decel="4.5" speedDev="0.2" sigma="0.5" length="3.0" maxSpeed="12.84121499544035" guiShape="passenger"/>
<vType id="taxi_v174" accel="0.8" decel="4.5" speedDev="0.2" sigma="0.5" length="3.0" maxSpeed="9.632262810590245" guiShape="passenger"/>
<vType id="taxi_v175" accel="0.8" decel="4.5" speedDev="0.2" sigma="0.5" length="3.0" maxSpeed="7.348248984574688" guiShape="passenger"/>
<vType id="taxi_v176" accel="0.8" decel="4.5" speedDev="0.2" sigma="0.5" length="3.0" maxSpeed="8.62090506609811" guiShape="passenger"/>
<vType id="taxi_v177" accel="0.8" decel="4.5" speedDev="0.2" sigma="0.5" length="3.0" maxSpeed="8.582821497870672" guiShape="passenger"/>
<vType id="taxi_v178" accel="0.8" decel="4.5" speedDev="0.2" sigma="0.5" length="3.0" maxSpeed="8.22794375780554" guiShape="passenger"/>
<vType id="taxi_v179" accel="0.8" decel="4.5" speedDev="0.2" sigma="0.5" length="3.0" maxSpeed="5.928654213136537" guiShape="passenger"/>
<vType id="taxi_v180" accel="0.8" decel="4.5" speedDev="0.2" sigma="0.5" length="3.0" maxSpeed="9.372835283405543" guiShape="passenger"/>
<vType id="taxi_v181" accel="0.8" decel="4.5" speedDev="0.2" sigma="0.5" length="3.0" maxSpeed="15.239413019186534" guiShape="passenger"/>
<vType id="taxi_v182" accel="0.8" decel="4.5" speedDev="0.2" sigma="0.5" length="3.0" maxSpeed="5.560961317295991" guiShape="passenger"/>
<vType id="taxi_v183" accel="0.8" decel="4.5" speedDev="0.2" sigma="0.5" length="3.0" maxSpeed="5.834171536319077" guiShape="passenger"/>
<vType id="taxi_v184" accel="0.8" decel="4.5" speedDev="0.2" sigma="0.5" length="3.0" maxSpeed="7.248582328981383" guiShape="passenger"/>
<vType id="taxi_v185" accel="0.8" decel="4.5" speedDev="0.2" sigma="0.5" length="3.0" maxSpeed="11.616262365252563" guiShape="passenger"/>
<vType id="taxi_v186" accel="0.8" decel="4.5" speedDev="0.2" sigma="0.5" length="3.0" maxSpeed="9.195123310089926" guiShape="passenger"/>
<vType id="taxi_v187" accel="0.8" decel="4.5" speedDev="0.2" sigma="0.5" length="3.0" maxSpeed="13.49593154257907" guiShape="passenger"/>
<vType id="taxi_v188" accel="0.8" decel="4.5" speedDev="0.2" sigma="0.5" length="3.0" maxSpeed="13.684147984985152" guiShape="passenger"/>
<vType id="taxi_v189" accel="0.8" decel="4.5" speedDev="0.2" sigma="0.5" length="3.0" maxSpeed="12.827052695186849" guiShape="passenger"/>
<vType id="taxi_v190" accel="0.8" decel="4.5" speedDev="0.2" sigma="0.5" length="3.0" maxSpeed="10.906719455491821" guiShape="passenger"/>
<vType id="taxi_v191" accel="0.8" decel="4.5" speedDev="0.2" sigma="0.5" length="3.0" maxSpeed="15.108356484188882" guiShape="passenger"/>
<vType id="taxi_v192" accel="0.8" decel="4.5" speedDev="0.2" sigma="0.5" length="3.0" maxSpeed="16.53697277719877" guiShape="passenger"/>
<vType id="taxi_v193" accel="0.8" decel="4.5" speedDev="0.2" sigma="0.5" length="3.0" maxSpeed="6.998836872545221" guiShape="passenger"/>
<vType id="taxi_v194" accel="0.8" decel="4.5" speedDev="0.2" sigma="0.5" length="3.0" maxSpeed="9.90550769383367" guiShape="passenger"/>
<vType id="taxi_v195" accel="0.8" decel="4.5" speedDev="0.2" sigma="0.5" length="3.0" maxSpeed="15.233639211625805" guiShape="passenger"/>
<vType id="taxi_v196" accel="0.8" decel="4.5" speedDev="0.2" sigma="0.5" length="3.0" maxSpeed="12.761699364032003" guiShape="passenger"/>
<vType id="taxi_v197" accel="0.8" decel="4.5" speedDev="0.2" sigma="0.5" length="3.0" maxSpeed="10.032718083874272" guiShape="passenger"/>
<vType id="taxi_v198" accel="0.8" decel="4.5" speedDev="0.2" sigma="0.5" length="3.0" maxSpeed="13.539612171128358" guiShape="passenger"/>
<vType id="taxi_v199" accel="0.8" decel="4.5" speedDev="0.2" sigma="0.5" length="3.0" maxSpeed="8.636287038844298" guiShape="passenger"/>
<vType id="taxi_v200" accel="0.8" decel="4.5" speedDev="0.2" sigma="0.5" length="3.0" maxSpeed="15.053612864823723" guiShape="passenger"/>
<vType id="taxi_v201" accel="0.8" decel="4.5" speedDev="0.2" sigma="0.5" length="3.0" maxSpeed="6.494608115117778" guiShape="passenger"/>
<vType id="taxi_v202" accel="0.8" decel="4.5" speedDev="0.2" sigma="0.5" length="3.0" maxSpeed="6.719495534749045" guiShape="passenger"/>
<vType id="taxi_v203" accel="0.8" decel="4.5" speedDev="0.2" sigma="0.5" length="3.0" maxSpeed="14.283061329574242" guiShape="passenger"/>
<vType id="taxi_v204" accel="0.8" decel="4.5" speedDev="0.2" sigma="0.5" length="3.0" maxSpeed="10.274238277635188" guiShape="passenger"/>
<vType id="taxi_v205" accel="0.8" decel="4.5" speedDev="0.2" sigma="0.5" length="3.0" maxSpeed="14.21179144163926" guiShape="passenger"/>
<vType id="taxi_v206" accel="0.8" decel="4.5" speedDev="0.2" sigma="0.5" length="3.0" maxSpeed="15.698316289096677" guiShape="passenger"/>
<vType id="taxi_v207" accel="0.8" decel="4.5" speedDev="0.2" sigma="0.5" length="3.0" maxSpeed="13.909821809403448" guiShape="passenger"/>