<net xmlns:xsi="http://www.w3.org/2001/XMLSchema-instance" version="1.16" junctionCornerDetail="5" limitTurnSpeed="5.50" xsi:noNamespaceSchemaLocation="http://sumo.dlr.de/xsd/net_file.xsd">
    <location netOffset="0.00,0.00" convBoundary="0.00,0.00,2000.0,0.00" origBoundary="-10000000000.00,-10000000000.00,10000000000.00,10000000000.00" projParameter="!"/>
    <edge id="E0" from="J0" to="J1" priority="-1">
    <lane id="E0_0" index="0" speed="22.49123468480566" length="2000.0" shape="0.00,-3.2 2000.0,-3.2"/>
<lane id="E0_1" index="1" speed="16.940759395216258" length="2000.0" shape="0.00,0.0 2000.0,0.0"/>
<lane id="E0_2" index="2" speed="15.867255851022758" length="2000.0" shape="0.00,3.2 2000.0,3.2"/>
<lane id="E0_3" index="3" speed="15.13837771829316" length="2000.0" shape="0.00,6.4 2000.0,6.4"/>
<junction id="J0" type="dead_end" x="0.00" y="0.00" incLanes="" intLanes="" shape="0.00,0.00 0.00,12.8"/>
<junction id="J1" type="dead_end" x="2000.0" y="0.00" incLanes="E0_0 E0_1 E0_2 E0_3" intLanes="" shape="2000.0,12.8 2000.0,0.00"/>
<vehicleTypes>
<vType id="taxi" accel="0.8" decel="4.5" speedDev="0.2" sigma="0.5" length="3.0" maxSpeed="25.0" guiShape="passenger"/>
<vType id="emv" vClass="emergency"/>
<vType id="taxi_v0" accel="0.8" decel="4.5" speedDev="0.2" sigma="0.5" length="3.0" maxSpeed="15.646005512559448" guiShape="passenger"/>
<vType id="taxi_v1" accel="0.8" decel="4.5" speedDev="0.2" sigma="0.5" length="3.0" maxSpeed="11.16337752972935" guiShape="passenger"/>
<vType id="taxi_v2" accel="0.8" decel="4.5" speedDev="0.2" sigma="0.5" length="3.0" maxSpeed="8.68721302426287" guiShape="passenger"/>
<vType id="taxi_v3" accel="0.8" decel="4.5" speedDev="0.2" sigma="0.5" length="3.0" maxSpeed="13.953642834072578" guiShape="passenger"/>
<vType id="taxi_v4" accel="0.8" decel="4.5" speedDev="0.2" sigma="0.5" length="3.0" maxSpeed="12.42654526965828" guiShape="passenger"/>
<vType id="taxi_v5" accel="0.8" decel="4.5" speedDev="0.2" sigma="0.5" length="3.0" maxSpeed="8.339076161414622" guiShape="passenger"/>
<vType id="taxi_v6" accel="0.8" decel="4.5" speedDev="0.2" sigma="0.5" length="3.0" maxSpeed="15.664154548565504" guiShape="passenger"/>
<vType id="taxi_v7" accel="0.8" decel="4.5" speedDev="0.2" sigma="0.5" length="3.0" maxSpeed="16.475722538444778" guiShape="passenger"/>
<vType id="taxi_v8" accel="0.8" decel="4.5" speedDev="0.2" sigma="0.5" length="3.0" maxSpeed="14.558247796052507" guiShape="passenger"/>
<vType id="taxi_v9" accel="0.8" decel="4.5" speedDev="0.2" sigma="0.5" length="3.0" maxSpeed="15.579926741714381" guiShape="passenger"/>
<vType id="taxi_v10" accel="0.8" decel="4.5" speedDev="0.2" sigma="0.5" length="3.0" maxSpeed="9.001773701734834" guiShape="passenger"/>
<vType id="taxi_v11" accel="0.8" decel="4.5" speedDev="0.2" sigma="0.5" length="3.0" maxSpeed="13.665052487617595" guiShape="passenger"/>
<vType id="taxi_v12" accel="0.8" decel="4.5" speedDev="0.2" sigma="0.5" length="3.0" maxSpeed="15.542951752927564" guiShape="passenger"/>
<vType id="taxi_v13" accel="0.8" decel="4.5" speedDev="0.2" sigma="0.5" length="3.0" maxSpeed="13.155619061085236" guiShape="passenger"/>
<vType id="taxi_v14" accel="0.8" decel="4.5" speedDev="0.2" sigma="0.5" length="3.0" maxSpeed="10.80176656848128" guiShape="passenger"/>
<vType id="taxi_v15" accel="0.8" decel="4.5" speedDev="0.2" sigma="0.5" length="3.0" maxSpeed="6.67453140333084" guiShape="passenger"/>
<vType id="taxi_v16" accel="0.8" decel="4.5" speedDev="0.2" sigma="0.5" length="3.0" maxSpeed="10.379856932461173" guiShape="passenger"/>
<vType id="taxi_v17" accel="0.8" decel="4.5" speedDev="0.2" sigma="0.5" length="3.0" maxSpeed="12.343409516723458" guiShape="passenger"/>
<vType id="taxi_v18" accel="0.8" decel="4.5" speedDev="0.2" sigma="0.5" length="3.0" maxSpeed="15.700431016947583" guiShape="passenger"/>
<vType id="taxi_v19" accel="0.8" decel="4.5" speedDev="0.2" sigma="0.5" length="3.0" maxSpeed="16.29594999484801" guiShape="passenger"/>
<vType id="taxi_v20" accel="0.8" decel="4.5" speedDev="0.2" sigma="0.5" length="3.0" maxSpeed="10.85584643118786" guiShape="passenger"/>
<vType id="taxi_v21" accel="0.8" decel="4.5" speedDev="0.2" sigma="0.5" length="3.0" maxSpeed="15.170404731441803" guiShape="passenger"/>
<vType id="taxi_v22" accel="0.8" decel="4.5" speedDev="0.2" sigma="0.5" length="3.0" maxSpeed="8.450034257689218" guiShape="passenger"/>
<vType id="taxi_v23" accel="0.8" decel="4.5" speedDev="0.2" sigma="0.5" length="3.0" maxSpeed="14.500586197072497" guiShape="passenger"/>
<vType id="taxi_v24" accel="0.8" decel="4.5" speedDev="0.2" sigma="0.5" length="3.0" maxSpeed="11.652417444638768" guiShape="passenger"/>
<vType id="taxi_v25" accel="0.8" decel="4.5" speedDev="0.2" sigma="0.5" length="3.0" maxSpeed="5.71162294720248" guiShape="passenger"/>
<vType id="taxi_v26" accel="0.8" decel="4.5" speedDev="0.2" sigma="0.5" length="3.0" maxSpeed="13.552526652508897" guiShape="passenger"/>
<vType id="taxi_v27" accel="0.8" decel="4.5" speedDev="0.2" sigma="0.5" length="3.0" maxSpeed="9.987087907070741" guiShape="passenger"/>
<vType id="taxi_v28" accel="0.8" decel="4.5" speedDev="0.2" sigma="0.5" length="3.0" maxSpeed="14.720782479084878" guiShape="passenger"/>
<vType id="taxi_v29" accel="0.8" decel="4.5" speedDev="0.2" sigma="0.5" length="3.0" maxSpeed="12.979717480167588" guiShape="passenger"/>
<vType id="taxi_v30" accel="0.8" decel="4.5" speedDev="0.2" sigma="0.5" length="3.0" maxSpeed="5.568298322530339" guiShape="passenger"/>
<vType id="taxi_v31" accel="0.8" decel="4.5" speedDev="0.2" sigma="0.5" length="3.0" maxSpeed="11.039941105442809" guiShape="passenger"/>
<vType id="taxi_v32" accel="0.8" decel="4.5" speedDev="0.2" sigma="0.5" length="3.0" maxSpeed="15.195881479610486" guiShape="passenger"/>
<vType id="taxi_v33" accel="0.8" decel="4.5" speedDev="0.2" sigma="0.5" length="3.0" maxSpeed="8.265791317443679" guiShape="passenger"/>
<vType id="taxi_v34" accel="0.8" decel="4.5" speedDev="0.2" sigma="0.5" length="3.0" maxSpeed="9.16907575623135" guiShape="passenger"/>
<vType id="taxi_v35" accel="0.8" decel="4.5" speedDev="0.2" sigma="0.5" length="3.0" maxSpeed="15.227754048452107" guiShape="passenger"/>
<vType id="taxi_v36" accel="0.8" decel="4.5" speedDev="0.2" sigma="0.5" length="3.0" maxSpeed="7.678622880519663" guiShape="passenger"/>
<vType id="taxi_v37" accel="0.8" decel="4.5" speedDev="0.2" sigma="0.5" length="3.0" maxSpeed="11.861438843332534" guiShape="passenger"/>
<vType id="taxi_v38" accel="0.8" decel="4.5" speedDev="0.2" sigma="0.5" length="3.0" maxSpeed="8.206957029215157" guiShape="passenger"/>
<vType id="taxi_v39" accel="0.8" decel="4.5" speedDev="0.2" sigma="0.5" length="3.0" maxSpeed="16.306326737073903" guiShape="passenger"/>
<vType id="taxi_v40" accel="0.8" decel="4.5" speedDev="0.2" sigma="0.5" length="3.0" maxSpeed="14.480048354956349" guiShape="passenger"/>
<vType id="taxi_v41" accel="0.8" decel="4.5" speedDev="0.2" sigma="0.5" length="3.0" maxSpeed="10.533169096049196" guiShape="passenger"/>
<vType id="taxi_v42" accel="0.8" decel="4.5" speedDev="0.2" sigma="0.5" length="3.0" maxSpeed="6.449465668264642" guiShape="passenger"/>
<vType id="taxi_v43" accel="0.8" decel="4.5" speedDev="0.2" sigma="0.5" length="3.0" maxSpeed="9.111854734358525" guiShape="passenger"/>
<vType id="taxi_v44" accel="0.8" decel="4.5" speedDev="0.2" sigma="0.5" length="3.0" maxSpeed="11.199531655303105" guiShape="passenger"/>
<vType id="taxi_v45" accel="0.8" decel="4.5" speedDev="0.2" sigma="0.5" length="3.0" maxSpeed="15.920689754514854" guiShape="passenger"/>
<vType id="taxi_v46" accel="0.8" decel="4.5" speedDev="0.2" sigma="0.5" length="3.0" maxSpeed="6.767385349278865" guiShape="passenger"/>
<vType id="taxi_v47" accel="0.8" decel="4.5" speedDev="0.2" sigma="0.5" length="3.0" maxSpeed="11.680950878210552" guiShape="passenger"/>
<vType id="taxi_v48" accel="0.8" decel="4.5" speedDev="0.2" sigma="0.5" length="3.0" maxSpeed="13.406486449594958" guiShape="passenger"/>
<vType id="taxi_v49" accel="0.8" decel="4.5" speedDev="0.2" sigma="0.5" length="3.0" maxSpeed="11.638434942134648" guiShape="passenger"/>
<vType id="taxi_v50" accel="0.8" decel="4.5" speedDev="0.2" sigma="0.5" length="3.0" maxSpeed="14.605467104775352" guiShape="passenger"/>
<vType id="taxi_v51" accel="0.8" decel="4.5" speedDev="0.2" sigma="0.5" length="3.0" maxSpeed="11.558907270490058" guiShape="passenger"/>
<vType id="taxi_v52" accel="0.8" decel="4.5" speedDev="0.2" sigma="0.5" length="3.0" maxSpeed="16.26519561973329" guiShape="passenger"/>
<vType id="taxi_v53" accel="0.8" decel="4.5" speedDev="0.2" sigma="0.5" length="3.0" maxSpeed="12.257836786530111" guiShape="passenger"/>
<vType id="taxi_v54" accel="0.8" decel="4.5" speedDev="0.2" sigma="0.5" length="3.0" maxSpeed="12.084848246878945" guiShape="passenger"/>
<vType id="taxi_v55" accel="0.8" decel="4.5" speedDev="0.2" sigma="0.5" length="3.0" maxSpeed="10.50005106655777" guiShape="passenger"/>
<vType id="taxi_v56" accel="0.8" decel="4.5" speedDev="0.2" sigma="0.5" length="3.0" maxSpeed="12.181181833794529" guiShape="passenger"/>
<vType id="taxi_v57" accel="0.8" decel="4.5" speedDev="0.2" sigma="0.5" length="3.0" maxSpeed="9.832390593360621" guiShape="passenger"/>
<vType id="taxi_v58" accel="0.8" decel="4.5" speedDev="0.2" sigma="0.5" length="3.0" maxSpeed="11.951888678791743" guiShape="passenger"/>
<vType id="taxi_v59" accel="0.8" decel="4.5" speedDev="0.2" sigma="0.5" length="3.0" maxSpeed="8.781567232998006" guiShape="passenger"/>
<vType id="taxi_v60" accel="0.8" decel="4.5" speedDev="0.2" sigma="0.5" length="3.0" maxSpeed="7.660002808098874" guiShape="passenger"/>
<vType id="taxi_v61" accel="0.8" decel="4.5" speedDev="0.2" sigma="0.5" length="3.0" maxSpeed="7.630426480258775" guiShape="passenger"/>
<vType id="taxi_v62" accel="0.8" decel="4.5" speedDev="0.2" sigma="0.5" length="3.0" maxSpeed="12.364367910792037" guiShape="passenger"/>
<vType id="taxi_v63" accel="0.8" decel="4.5" speedDev="0.2" sigma="0.5" length="3.0" maxSpeed="12.852005134819363" guiShape="passenger"/>
<vType id="taxi_v64" accel="0.8" decel="4.5" speedDev="0.2" sigma="0.5" length="3.0" maxSpeed="10.850526464613035" guiShape="passenger"/>
<vType id="taxi_v65" accel="0.8" decel="4.5" speedDev="0.2" sigma="0.5" length="3.0" maxSpeed="6.55367440698872" guiShape="passenger"/>
<vType id="taxi_v66" accel="0.8" decel="4.5" speedDev="0.2" sigma="0.5" length="3.0" maxSpeed="13.973640218537867" guiShape="passenger"/>
<vType id="taxi_v67" accel="0.8" decel="4.5" speedDev="0.2" sigma="0.5" length="3.0" maxSpeed="15.297746298360181" guiShape="passenger"/>
<vType id="taxi_v68" accel="0.8" decel="4.5" speedDev="0.2" sigma="0.5" length="3.0" maxSpeed="15.815655820585505" guiShape="passenger"/>
<vType id="taxi_v69" accel="0.8" decel="4.5" speedDev="0.2" sigma="0.5" length="3.0" maxSpeed="14.916512523399824" guiShape="passenger"/>
<vType id="taxi_v70" accel="0.8" decel="4.5" speedDev="0.2" sigma="0.5" length="3.0" maxSpeed="15.535560820655938" guiShape="passenger"/>
<vType id="taxi_v71" accel="0.8" decel="4.5" speedDev="0.2" sigma="0.5" length="3.0" maxSpeed="15.812338221817914" guiShape="passenger"/>
<vType id="taxi_v72" accel="0.8" decel="4.5" speedDev="0.2" sigma="0.5" length="3.0" maxSpeed="11.562422006067813" guiShape="passenger"/>
<vType id="taxi_v73" accel="0.8" decel="4.5" speedDev="0.2" sigma="0.5" length="3.0" maxSpeed="9.903446932577012" guiShape="passenger"/>
<vType id="taxi_v74" accel="0.8" decel="4.5" speedDev="0.2" sigma="0.5" length="3.0" maxSpeed="13.39228596914225" guiShape="passenger"/>
<vType id="taxi_v75" accel="0.8" decel="4.5" speedDev="0.2" sigma="0.5" length="3.0" maxSpeed="8.61828097554757" guiShape="passenger"/>
<vType id="taxi_v76" accel="0.8" decel="4.5" speedDev="0.2" sigma="0.5" length="3.0" maxSpeed="14.573931231714443" guiShape="passenger"/>
<vType id="taxi_v77" accel="0.8" decel="4.5" speedDev="0.2" sigma="0.5" length="3.0" maxSpeed="14.9945783535718" guiShape="passenger"/>
<vType id="taxi_v78" accel="0.8" decel="4.5" speedDev="0.2" sigma="0.5" length="3.0" maxSpeed="15.50073598266476" guiShape="passenger"/>
<vType id="taxi_v79" accel="0.8" decel="4.5" speedDev="0.2" sigma="0.5" length="3.0" maxSpeed="12.10911687068813" guiShape="passenger"/>
<vType id="taxi_v80" accel="0.8" decel="4.5" speedDev="0.2" sigma="0.5" length="3.0" maxSpeed="16.108817412431385" guiShape="passenger"/>
<vType id="taxi_v81" accel="0.8" decel="4.5" speedDev="0.2" sigma="0.5" length="3.0" maxSpeed="11.996823142398727" guiShape="passenger"/>
<vType id="taxi_v82" accel="0.8" decel="4.5" speedDev="0.2" sigma="0.5" length="3.0" maxSpeed="10.561986903021419" guiShape="passenger"/>
<vType id="taxi_v83" accel="0.8" decel="4.5" speedDev="0.2" sigma="0.5" length="3.0" maxSpeed="12.891850500024814" guiShape="passenger"/>
<vType id="taxi_v84" accel="0.8" decel="4.5" speedDev="0.2" sigma="0.5" length="3.0" maxSpeed="16.62541935619329" guiShape="passenger"/>
<vType id="taxi_v85" accel="0.8" decel="4.5" speedDev="0.2" sigma="0.5" length="3.0" maxSpeed="15.744100649101364" guiShape="passenger"/>
<vType id="taxi_v86" accel="0.8" decel="4.5" speedDev="0.2" sigma="0.5" length="3.0" maxSpeed="14.370552339804574" guiShape="passenger"/>
<vType id="taxi_v87" accel="0.8" decel="4.5" speedDev="0.2" sigma="0.5" length="3.0" maxSpeed="6.470879221048228" guiShape="passenger"/>
<vType id="taxi_v88" accel="0.8" decel="4.5" speedDev="0.2" sigma="0.5" length="3.0" maxSpeed="12.36447819334937" guiShape="passenger"/>
<vType id="taxi_v89" accel="0.8" decel="4.5" speedDev="0.2" sigma="0.5" length="3.0" maxSpeed="10.9606761057602" guiShape="passenger"/>
<vType id="taxi_v90" accel="0.8" decel="4.5" speedDev="0.2" sigma="0.5" length="3.0" maxSpeed="12.55741915824804" guiShape="passenger"/>
<vType id="taxi_v91" accel="0.8" decel="4.5" speedDev="0.2" sigma="0.5" length="3.0" maxSpeed="14.945594974316476" guiShape="passenger"/>
<vType id="taxi_v92" accel="0.8" decel="4.5" speedDev="0.2" sigma="0.5" length="3.0" maxSpeed="8.25606601097811" guiShape="passenger"/>
<vType id="taxi_v93" accel="0.8" decel="4.5" speedDev="0.2" sigma="0.5" length="3.0" maxSpeed="13.683469327895427" guiShape="passenger"/>
<vType id="taxi_v94" accel="0.8" decel="4.5" speedDev="0.2" sigma="0.5" length="3.0" maxSpeed="6.857125985557127" guiShape="passenger"/>
<vType id="taxi_v95" accel="0.8" decel="4.5" speedDev="0.2" sigma="0.5" length="3.0" maxSpeed="8.00522520935319" guiShape="passenger"/>
<vType id="taxi_v96" accel="0.8" decel="4.5" speedDev="0.2" sigma="0.5" length="3.0" maxSpeed="14.384529231864894" guiShape="passenger"/>
<vType id="taxi_v97" accel="0.8" decel="4.5" speedDev="0.2" sigma="0.5" length="3.0" maxSpeed="9.25054216843928" guiShape="passenger"/>
<vType id="taxi_v98" accel="0.8" decel="4.5" speedDev="0.2" sigma="0.5" length="3.0" maxSpeed="14.621536780824105" guiShape="passenger"/>
<vType id="taxi_v99" accel="0.8" decel="4.5" speedDev="0.2" sigma="0.5" length="3.0" maxSpeed="6.673490400129132" guiShape="passenger"/>
<vType id="taxi_v100" accel="0.8" decel="4.5" speedDev="0.2" sigma="0.5" length="3.0" maxSpeed="7.181847713700173" guiShape="passenger"/>
<vType id="taxi_v101" accel="0.8" decel="4.5" speedDev="0.2" sigma="0.5" length="3.0" maxSpeed="13.307697551420933" guiShape="passenger"/>
<vType id="taxi_v102" accel="0.8" decel="4.5" speedDev="0.2" sigma="0.5" length="3.0" maxSpeed="6.058213821681965" guiShape="passenger"/>
<vType id="taxi_v103" accel="0.8" decel="4.5" speedDev="0.2" sigma="0.5" length="3.0" maxSpeed="11.93205508117915" guiShape="passenger"/>
<vType id="taxi_v104" accel="0.8" decel="4.5" speedDev="0.2" sigma="0.5" length="3.0" maxSpeed="15.66715194572691" guiShape="passenger"/>
<vType id="taxi_v105" accel="0.8" decel="4.5" speedDev="0.2" sigma="0.5" length="3.0" maxSpeed="11.491287304532209" guiShape="passenger"/>
<vType id="taxi_v106" accel="0.8" decel="4.5" speedDev="0.2" sigma="0.5" length="3.0" maxSpeed="13.117898087552259" guiShape="passenger"/>
<vType id="taxi_v107" accel="0.8" decel="4.5" speedDev="0.2" sigma="0.5" length="3.0" maxSpeed="5.852238764209627" guiShape="passenger"/>
<vType id="taxi_v108" accel="0.8" decel="4.5" speedDev="0.2" sigma="0.5" length="3.0" maxSpeed="12.611337998990178" guiShape="passenger"/>
<vType id="taxi_v109" accel="0.8" decel="4.5" speedDev="0.2" sigma="0.5" length="3.0" maxSpeed="12.29286869503423" guiShape="passenger"/>
<vType id="taxi_v110" accel="0.8" decel="4.5" speedDev="0.2" sigma="0.5" length="3.0" maxSpeed="11.955243586757662" guiShape="passenger"/>
<vType id="taxi_v111" accel="0.8" decel="4.5" speedDev="0.2" sigma="0.5" length="3.0" maxSpeed="9.90248423074966" guiShape="passenger"/>
<vType id="taxi_v112" accel="0.8" decel="4.5" speedDev="0.2" sigma="0.5" length="3.0" maxSpeed="9.668372933040402" guiShape="passenger"/>
<vType id="taxi_v113" accel="0.8" decel="4.5" speedDev="0.2" sigma="0.5" length="3.0" maxSpeed="16.450512712002062" guiShape="passenger"/>
<vType id="taxi_v114" accel="0.8" decel="4.5" speedDev="0.2" sigma="0.5" length="3.0" maxSpeed="5.959966486716263" guiShape="passenger"/>
<vType id="taxi_v115" accel="0.8" decel="4.5" speedDev="0.2" sigma="0.5" length="3.0" maxSpeed="5.796011915603114" guiShape="passenger"/>
<vType id="taxi_v116" accel="0.8" decel="4.5" speedDev="0.2" sigma="0.5" length="3.0" maxSpeed="16.23400296725442" guiShape="passenger"/>
<vType id="taxi_v117" accel="0.8" decel="4.5" speedDev="0.2" sigma="0.5" length="3.0" maxSpeed="7.610897229643497" guiShape="passenger"/>
<vType id="taxi_v118" accel="0.8" decel="4.5" speedDev="0.2" sigma="0.5" length="3.0" maxSpeed="6.932248729985631" guiShape="passenger"/>
<vType id="taxi_v119" accel="0.8" decel="4.5" speedDev="0.2" sigma="0.5" length="3.0" maxSpeed="7.895399831954483" guiShape="passenger"/>
<vType id="taxi_v120" accel="0.8" decel="4.5" speedDev="0.2" sigma="0.5" length="3.0" maxSpeed="14.453015664061448" guiShape="passenger"/>
<vType id="taxi_v121" accel="0.8" decel="4.5" speedDev="0.2" sigma="0.5" length="3.0" maxSpeed="15.966639109363395" guiShape="passenger"/>
<vType id="taxi_v122" accel="0.8" decel="4.5" speedDev="0.2" sigma="0.5" length="3.0" maxSpeed="5.808746311284731" guiShape="passenger"/>
<vType id="taxi_v123" accel="0.8" decel="4.5" speedDev="0.2" sigma="0.5" length="3.0" maxSpeed="10.284821089516093" guiShape="passenger"/>
<vType id="taxi_v124" accel="0.8" decel="4.5" speedDev="0.2" sigma="0.5" length="3.0" maxSpeed="6.68340953755415" guiShape="passenger"/>
<vType id="taxi_v125" accel="0.8" decel="4.5" speedDev="0.2" sigma="0.5" length="3.0" maxSpeed="8.443673863444074" guiShape="passenger"/>
<vType id="taxi_v126" accel="0.8" decel="4.5" speedDev="0.2" sigma="0.5" length="3.0" maxSpeed="8.00932236530413" guiShape="passenger"/>
<vType id="taxi_v127" accel="0.8" decel="4.5" speedDev="0.2" sigma="0.5" length="3.0" maxSpeed="12.743850443378204" guiShape="passenger"/>
<vType id="taxi_v128" accel="0.8" decel="4.5" speedDev="0.2" sigma="0.5" length="3.0" maxSpeed="9.447856389329829" guiShape="passenger"/>
<vType id="taxi_v129" accel="0.8" decel="4.5" speedDev="0.2" sigma="0.5" length="3.0" maxSpeed="7.559184331056974" guiShape="passenger"/>
<vType id="taxi_v130" accel="0.8" decel="4.5" speedDev="0.2" sigma="0.5" length="3.0" maxSpeed="11.151706663989142" guiShape="passenger"/>
<vType id="taxi_v131" accel="0.8" decel="4.5" speedDev="0.2" sigma="0.5" length="3.0" maxSpeed="5.993152565900851" guiShape="passenger"/>
<vType id="taxi_v132" accel="0.8" decel="4.5" speedDev="0.2" sigma="0.5" length="3.0" maxSpeed="6.676976279347084" guiShape="passenger"/>
<vType id="taxi_v133" accel="0.8" decel="4.5" speedDev="0.2" sigma="0.5" length="3.0" maxSpeed="16.5362760315152" guiShape="passenger"/>
<vType id="taxi_v134" accel="0.8" decel="4.5" speedDev="0.2" sigma="0.5" length="3.0" maxSpeed="7.770721930195724" guiShape="passenger"/>
<vType id="taxi_v135" accel="0.8" decel="4.5" speedDev="0.2" sigma="0.5" length="3.0" maxSpeed="9.539651374993733" guiShape="passenger"/>
<vType id="taxi_v136" accel="0.8" decel="4.5" speedDev="0.2" sigma="0.5" length="3.0" maxSpeed="13.684681419792472" guiShape="passenger"/>
<vType id="taxi_v137" accel="0.8" decel="4.5" speedDev="0.2" sigma="0.5" length="3.0" maxSpeed="14.870581796490127" guiShape="passenger"/>
<vType id="taxi_v138" accel="0.8" decel="4.5" speedDev="0.2" sigma="0.5" length="3.0" maxSpeed="15.761221583654928" guiShape="passenger"/>
<vType id="taxi_v139" accel="0.8" decel="4.5" speedDev="0.2" sigma="0.5" length="3.0" maxSpeed="7.438144568191403" guiShape="passenger"/>
<vType id="taxi_v140" accel="0.8" decel="4.5" speedDev="0.2" sigma="0.5" length="3.0" maxSpeed="13.029578358085617" guiShape="passenger"/>
<vType id="taxi_v141" accel="0.8" decel="4.5" speedDev="0.2" sigma="0.5" length="3.0" maxSpeed="16.295311481274027" guiShape="passenger"/>
<vType id="taxi_v142" accel="0.8" decel="4.5" speedDev="0.2" sigma="0.5" length="3.0" maxSpeed="6.200627257233758" guiShape="passenger"/>
<vType id="taxi_v143" accel="0.8" decel="4.5" speedDev="0.2" sigma="0.5" length="3.0" maxSpeed="13.069148506064113" guiShape="passenger"/>
<vType id="taxi_v144" accel="0.8" decel="4.5" speedDev="0.2" sigma="0.5" length="3.0" maxSpeed="14.949450830456142" guiShape="passenger"/>
<vType id="taxi_v145" accel="0.8" decel="4.5" speedDev="0.2" sigma="0.5" length="3.0" maxSpeed="9.359171568940578" guiShape="passenger"/>
<vType id="taxi_v146" accel="0.8" decel="4.5" speedDev="0.2" sigma="0.5" length="3.0" maxSpeed="8.34108730173259" guiShape="passenger"/>
<vType id="taxi_v147" accel="0.8" decel="4.5" speedDev="0.2" sigma="0.5" length="3.0" maxSpeed="12.186787889396015" guiShape="passenger"/>
<vType id="taxi_v148" accel="0.8" decel="4.5" speedDev="0.2" sigma="0.5" length="3.0" maxSpeed="10.470328154043948" guiShape="passenger"/>
<vType id="taxi_v149" accel="0.8" decel="4.5" speedDev="0.2" sigma="0.5" length="3.0" maxSpeed="7.498089219533743" guiShape="passenger"/>
<vType id="taxi_v150" accel="0.8" decel="4.5" speedDev="0.2" sigma="0.5" length="3.0" maxSpeed="10.796018637300895" guiShape="passenger"/>
<vType id="taxi_v151" accel="0.8" decel="4.5" speedDev="0.2" sigma="0.5" length="3.0" maxSpeed="10.110222813309353" guiShape="passenger"/>
<vType id="taxi_v152" accel="0.8" decel="4.5" speedDev="0.2" sigma="0.5" length="3.0" maxSpeed="11.87923929395009" guiShape="passenger"/>
<vType id="taxi_v153" accel="0.8" decel="4.5" speedDev="0.2" sigma="0.5" length="3.0" maxSpeed="11.206859485177944" guiShape="passenger"/>
<vType id="taxi_v154" accel="0.8" decel="4.5" speedDev="0.2" sigma="0.5" length="3.0" maxSpeed="9.016201095513699" guiShape="passenger"/>
<vType id="taxi_v155" accel="0.8" decel="4.5" speedDev="0.2" sigma="0.5" length="3.0" maxSpeed="9.524055205933447" guiShape="passenger"/>
<vType id="taxi_v156" accel="0.8" decel="4.5" speedDev="0.2" sigma="0.5" length="3.0" maxSpeed="14.863188372883474" guiShape="passenger"/>
<vType id="taxi_v157" accel="0.8" decel="4.5" speedDev="0.2" sigma="0.5" length="3.0" maxSpeed="8.343813211904694" guiShape="passenger"/>
<vType id="taxi_v158" accel="0.8" decel="4.5" speedDev="0.2" sigma="0.5" length="3.0" maxSpeed="11.784653271769047" guiShape="passenger"/>
<vType id="taxi_v159" accel="0.8" decel="4.5" speedDev="0.2" sigma="0.5" length="3.0" maxSpeed="5.693784913040044" guiShape="passenger"/>
<vType id="taxi_v160" accel="0.8" decel="4.5" speedDev="0.2" sigma="0.5" length="3.0" maxSpeed="13.795529537160848" guiShape="passenger"/>
<vType id="taxi_v161" accel="0.8" decel="4.5" speedDev="0.2" sigma="0.5" length="3.0" maxSpeed="9.28810320337641" guiShape="passenger"/>
<vType id="taxi_v162" accel="0.8" decel="4.5" speedDev="0.2" sigma="0.5" length="3.0" maxSpeed="6.063352018636105" guiShape="passenger"/>
<vType id="taxi_v163" accel="0.8" decel="4.5" speedDev="0.2" sigma="0.5" length="3.0" maxSpeed="8.676605190895755" guiShape="passenger"/>
<vType id="taxi_v164" accel="0.8" decel="4.5" speedDev="0.2" sigma="0.5" length="3.0" maxSpeed="8.22378501352175" guiShape="passenger"/>
<vType id="taxi_v165" accel="0.8" decel="4.5" speedDev="0.2" sigma="0.5" length="3.0" maxSpeed="16.146201346562606" guiShape="passenger"/>
<vType id="taxi_v166" accel="0.8" decel="4.5" speedDev="0.2" sigma="0.5" length="3.0" maxSpeed="9.469319104223409" guiShape="passenger"/>
<vType id="taxi_v167" accel="0.8" decel="4.5" speedDev="0.2" sigma="0.5" length="3.0" maxSpeed="8.754326663135403" guiShape="passenger"/>
<vType id="taxi_v168" accel="0.8" decel="4.5" speedDev="0.2" sigma="0.5" length="3.0" maxSpeed="9.546828183165278" guiShape="passenger"/>
<vType id="taxi_v169" accel="0.8" decel="4.5" speedDev="0.2" sigma="0.5" length="3.0" maxSpeed="16.077049502329093" guiShape="passenger"/>
<vType id="taxi_v170" accel="0.8" decel="4.5" speedDev="0.2" sigma="0.5" length="3.0" maxSpeed="12.597425885482345" guiShape="passenger"/>
<vType id="taxi_v171" accel="0.8" decel="4.5" speedDev="0.2" sigma="0.5" length="3.0" maxSpeed="12.45663326240726" guiShape="passenger"/>
<vType id="taxi_v172" accel="0.8" decel="4.5" speedDev="0.2" sigma="0.5" length="3.0" maxSpeed="13.507132848939602" guiShape="passenger"/>
<vType id="taxi_v173" accel="0.8" decel="4.5" speedDev="0.2" sigma="0.5" length="3.0" maxSpeed="9.867014708451375" guiShape="passenger"/>
<vType id="taxi_v174" accel="0.8" decel="4.5" speedDev="0.2" sigma="0.5" length="3.0" maxSpeed="10.160364034943807" guiShape="passenger"/>
<vType id="taxi_v175" accel="0.8" decel="4.5" speedDev="0.2" sigma="0.5" length="3.0" maxSpeed="12.787264265752933" guiShape="passenger"/>
<vType id="taxi_v176" accel="0.8" decel="4.5" speedDev="0.2" sigma="0.5" length="3.0" maxSpeed="5.572536238738761" guiShape="passenger"/>
<vType id="taxi_v177" accel="0.8" decel="4.5" speedDev="0.2" sigma="0.5" length="3.0" maxSpeed="7.692428236586091" guiShape="passenger"/>
<vType id="taxi_v178" accel="0.8" decel="4.5" speedDev="0.2" sigma="0.5" length="3.0" maxSpeed="9.271270945627322" guiShape="passenger"/>
<vType id="taxi_v179" accel="0.8" decel="4.5" speedDev="0.2" sigma="0.5" length="3.0" maxSpeed="8.21584650001026" guiShape="passenger"/>
<vType id="taxi_v180" accel="0.8" decel="4.5" speedDev="0.2" sigma="0.5" length="3.0" maxSpeed="12.637999705708108" guiShape="passenger"/>
<vType id="taxi_v181" accel="0.8" decel="4.5" speedDev="0.2" sigma="0.5" length="3.0" maxSpeed="9.762910168588032" guiShape="passenger"/>
<vType id="taxi_v182" accel="0.8" decel="4.5" speedDev="0.2" sigma="0.5" length="3.0" maxSpeed="15.282779474680021" guiShape="passenger"/>
<vType id="taxi_v183" accel="0.8" decel="4.5" speedDev="0.2" sigma="0.5" length="3.0" maxSpeed="11.868557698301508" guiShape="passenger"/>
<vType id="taxi_v184" accel="0.8" decel="4.5" speedDev="0.2" sigma="0.5" length="3.0" maxSpeed="10.160235236110646" guiShape="passenger"/>
<vType id="taxi_v185" accel="0.8" decel="4.5" speedDev="0.2" sigma="0.5" length="3.0" maxSpeed="10.02535037847814" guiShape="passenger"/>
<vType id="taxi_v186" accel="0.8" decel="4.5" speedDev="0.2" sigma="0.5" length="3.0" maxSpeed="13.353909683376642" guiShape="passenger"/>
<vType id="taxi_v187" accel="0.8" decel="4.5" speedDev="0.2" sigma="0.5" length="3.0" maxSpeed="10.202682524253909" guiShape="passenger"/>
<vType id="taxi_v188" accel="0.8" decel="4.5" speedDev="0.2" sigma="0.5" length="3.0" maxSpeed="12.913523400743676" guiShape="passenger"/>
<vType id="taxi_v189" accel="0.8" decel="4.5" speedDev="0.2" sigma="0.5" length="3.0" maxSpeed="6.0753878025403685" guiShape="passenger"/>
<vType id="taxi_v190" accel="0.8" decel="4.5" speedDev="0.2" sigma="0.5" length="3.0" maxSpeed="10.504086320841807" guiShape="passenger"/>
<vType id="taxi_v191" accel="0.8" decel="4.5" speedDev="0.2" sigma="0.5" length="3.0" maxSpeed="8.435974037191471" guiShape="passenger"/>
<vType id="taxi_v192" accel="0.8" decel="4.5" speedDev="0.2" sigma="0.5" length="3.0" maxSpeed="7.307718577479845" guiShape="passenger"/>
<vType id="taxi_v193" accel="0.8" decel="4.5" speedDev="0.2" sigma="0.5" length="3.0" maxSpeed="11.417676078544435" guiShape="passenger"/>
<vType id="taxi_v194" accel="0.8" decel="4.5" speedDev="0.2" sigma="0.5" length="3.0" maxSpeed="10.969802999718443" guiShape="passenger"/>
<vType id="taxi_v195" accel="0.8" decel="4.5" speedDev="0.2" sigma="0.5" length="3.0" maxSpeed="11.793594690472144" guiShape="passenger"/>
<vType id="taxi_v196" accel="0.8" decel="4.5" speedDev="0.2" sigma="0.5" length="3.0" maxSpeed="13.950093442918126" guiShape="passenger"/>
<vType id="taxi_v197" accel="0.8" decel="4.5" speedDev="0.2" sigma="0.5" length="3.0" maxSpeed="15.376690388919016" guiShape="passenger"/>
<vType id="taxi_v198" accel="0.8" decel="4.5" speedDev="0.2" sigma="0.5" length="3.0" maxSpeed="11.051105883607963" guiShape="passenger"/>
<vType id="taxi_v199" accel="0.8" decel="4.5" speedDev="0.2" sigma="0.5" length="3.0" maxSpeed="9.023003999236444" guiShape="passenger"/>
<vType id="taxi_v200" accel="0.8" decel="4.5" speedDev="0.2" sigma="0.5" length="3.0" maxSpeed="10.74342638389603" guiShape="passenger"/>
<vType id="taxi_v201" accel="0.8" decel="4.5" speedDev="0.2" sigma="0.5" length="3.0" maxSpeed="14.545232139473931" guiShape="passenger"/>
<vType id="taxi_v202" accel="0.8" decel="4.5" speedDev="0.2" sigma="0.5" length="3.0" maxSpeed="15.278256465609886" guiShape="passenger"/>
<vType id="taxi_v203" accel="0.8" decel="4.5" speedDev="0.2" sigma="0.5" length="3.0" maxSpeed="14.582667279466675" guiShape="passenger"/>
<vType id="taxi_v204" accel="0.8" decel="4.5" speedDev="0.2" sigma="0.5" length="3.0" maxSpeed="7.644557578716371" guiShape="passenger"/>
<vType id="taxi_v205" accel="0.8" decel="4.5" speedDev="0.2" sigma="0.5" length="3.0" maxSpeed="16.660559382051957" guiShape="passenger"/>
<vType id="taxi_v206" accel="0.8" decel="4.5" speedDev="0.2" sigma="0.5" length="3.0" maxSpeed="12.590102446956204" guiShape="passenger"/>
<vType id="taxi_v207" accel="0.8" decel="4.5" speedDev="0.2" sigma="0.5" length="3.0" maxSpeed="6.483035781322599" guiShape="passenger"/>