<routes xmlns:xsi="http://www.w3.org/2001/XMLSchema-instance" xsi:noNamespaceSchemaLocation="http://sumo.dlr.de/xsd/routes_file.xsd">
	<route id="r_0" edges="E0" />
	<flow id="taxi_v0" type="taxi_v0" begin="0.00" end="1.00" departSpeed="avg" departLane="1" color="cyan" route="r_0" probability="0.60"/>
	<flow id="taxi_v1" type="taxi_v1" begin="1.00" end="2.00" departSpeed="avg" departLane="2" color="cyan" route="r_0" probability="0.60"/>
	<flow id="taxi_v2" type="taxi_v2" begin="2.00" end="3.00" departSpeed="avg" departLane="3" color="cyan" route="r_0" probability="0.60"/>
	<flow id="taxi_v3" type="taxi_v3" begin="3.00" end="4.00" departSpeed="avg" departLane="0" color="cyan" route="r_0" probability="0.60"/>
	<flow id="taxi_v4" type="taxi_v4" begin="4.00" end="5.00" departSpeed="avg" departLane="1" color="cyan" route="r_0" probability="0.60"/>
	<flow id="taxi_v5" type="taxi_v5" begin="5.00" end="6.00" departSpeed="avg" departLane="3" color="cyan" route="r_0" probability="0.60"/>
	<flow id="taxi_v6" type="taxi_v6" begin="6.00" end="7.00" departSpeed="avg" departLane="0" color="cyan" route="r_0" probability="0.60"/>
	<flow id="taxi_v7" type="taxi_v7" begin="7.00" end="8.00" departSpeed="avg" departLane="0" color="cyan" route="r_0" probability="0.60"/>
	<flow id="taxi_v8" type="taxi_v8" begin="8.00" end="9.00" departSpeed="avg" departLane="0" color="cyan" route="r_0" probability="0.60"/>
	<flow id="taxi_v9" type="taxi_v9" begin="9.00" end="10.00" departSpeed="avg" departLane="0" color="cyan" route="r_0" probability="0.60"/>
	<flow id="taxi_v10" type="taxi_v10" begin="10.00" end="11.00" departSpeed="avg" departLane="2" color="cyan" route="r_0" probability="0.60"/>
	<flow id="taxi_v11" type="taxi_v11" begin="11.00" end="12.00" departSpeed="avg" departLane="0" color="cyan" route="r_0" probability="0.60"/>
	<flow id="taxi_v12" type="taxi_v12" begin="12.00" end="13.00" departSpeed="avg" departLane="1" color="cyan" route="r_0" probability="0.60"/>
	<flow id="taxi_v13" type="taxi_v13" begin="13.00" end="14.00" departSpeed="avg" departLane="1" color="cyan" route="r_0" probability="0.60"/>
	<flow id="taxi_v14" type="taxi_v14" begin="14.00" end="15.00" departSpeed="avg" departLane="2" color="cyan" route="r_0" probability="0.60"/>
	<flow id="taxi_v15" type="taxi_v15" begin="15.00" end="16.00" departSpeed="avg" departLane="3" color="cyan" route="r_0" probability="0.60"/>
	<flow id="taxi_v16" type="taxi_v16" begin="16.00" end="17.00" departSpeed="avg" departLane="3" color="cyan" route="r_0" probability="0.60"/>
	<flow id="taxi_v17" type="taxi_v17" begin="17.00" end="18.00" departSpeed="avg" departLane="0" color="cyan" route="r_0" probability="0.60"/>
	<flow id="taxi_v18" type="taxi_v18" begin="18.00" end="19.00" departSpeed="avg" departLane="0" color="cyan" route="r_0" probability="0.60"/>
	<flow id="taxi_v19" type="taxi_v19" begin="19.00" end="20.00" departSpeed="avg" departLane="1" color="cyan" route="r_0" probability="0.60"/>
	<flow id="taxi_v20" type="taxi_v20" begin="20.00" end="21.00" departSpeed="avg" departLane="2" color="cyan" route="r_0" probability="0.60"/>
	<flow id="taxi_v21" type="taxi_v21" begin="21.00" end="22.00" departSpeed="avg" departLane="0" color="cyan" route="r_0" probability="0.60"/>
	<flow id="taxi_v22" type="taxi_v22" begin="22.00" end="23.00" departSpeed="avg" departLane="2" color="cyan" route="r_0" probability="0.60"/>
	<flow id="taxi_v23" type="taxi_v23" begin="23.00" end="24.00" departSpeed="avg" departLane="0" color="cyan" route="r_0" probability="0.60"/>
	<flow id="taxi_v24" type="taxi_v24" begin="24.00" end="25.00" departSpeed="avg" departLane="2" color="cyan" route="r_0" probability="0.60"/>
	<flow id="taxi_v25" type="taxi_v25" begin="25.00" end="26.00" departSpeed="avg" departLane="2" color="cyan" route="r_0" probability="0.60"/>
	<flow id="taxi_v26" type="taxi_v26" begin="26.00" end="27.00" departSpeed="avg" departLane="1" color="cyan" route="r_0" probability="0.60"/>
	<flow id="taxi_v27" type="taxi_v27" begin="27.00" end="28.00" departSpeed="avg" departLane="3" color="cyan" route="r_0" probability="0.60"/>
	<flow id="taxi_v28" type="taxi_v28" begin="28.00" end="29.00" departSpeed="avg" departLane="1" color="cyan" route="r_0" probability="0.60"/>
	<flow id="taxi_v29" type="taxi_v29" begin="29.00" end="30.00" departSpeed="avg" departLane="0" color="cyan" route="r_0" probability="0.60"/>
	<flow id="taxi_v30" type="taxi_v30" begin="30.00" end="31.00" departSpeed="avg" departLane="3" color="cyan" route="r_0" probability="0.60"/>
	<flow id="taxi_v31" type="taxi_v31" begin="31.00" end="32.00" departSpeed="avg" departLane="2" color="cyan" route="r_0" probability="0.60"/>
	<flow id="taxi_v32" type="taxi_v32" begin="32.00" end="33.00" departSpeed="avg" departLane="0" color="cyan" route="r_0" probability="0.60"/>
	<flow id="taxi_v33" type="taxi_v33" begin="33.00" end="34.00" departSpeed="avg" departLane="2" color="cyan" route="r_0" probability="0.60"/>
	<flow id="taxi_v34" type="taxi_v34" begin="34.00" end="35.00" departSpeed="avg" departLane="3" color="cyan" route="r_0" probability="0.60"/>
	<flow id="taxi_v35" type="taxi_v35" begin="35.00" end="36.00" departSpeed="avg" departLane="0" color="cyan" route="r_0" probability="0.60"/>
	<flow id="taxi_v36" type="taxi_v36" begin="36.00" end="37.00" departSpeed="avg" departLane="3" color="cyan" route="r_0" probability="0.60"/>
	<flow id="taxi_v37" type="taxi_v37" begin="37.00" end="38.00" departSpeed="avg" departLane="2" color="cyan" route="r_0" probability="0.60"/>
	<flow id="taxi_v38" type="taxi_v38" begin="38.00" end="39.00" departSpeed="avg" departLane="2" color="cyan" route="r_0" probability="0.60"/>
	<flow id="taxi_v39" type="taxi_v39" begin="39.00" end="40.00" departSpeed="avg" departLane="0" color="cyan" route="r_0" probability="0.60"/>
	<flow id="taxi_v40" type="taxi_v40" begin="40.00" end="41.00" departSpeed="avg" departLane="1" color="cyan" route="r_0" probability="0.60"/>
	<flow id="taxi_v41" type="taxi_v41" begin="41.00" end="42.00" departSpeed="avg" departLane="2" color="cyan" route="r_0" probability="0.60"/>
	<flow id="taxi_v42" type="taxi_v42" begin="42.00" end="43.00" departSpeed="avg" departLane="3" color="cyan" route="r_0" probability="0.60"/>
	<flow id="taxi_v43" type="taxi_v43" begin="43.00" end="44.00" departSpeed="avg" departLane="3" color="cyan" route="r_0" probability="0.60"/>
	<flow id="taxi_v44" type="taxi_v44" begin="44.00" end="45.00" departSpeed="avg" departLane="3" color="cyan" route="r_0" probability="0.60"/>
	<flow id="taxi_v45" type="taxi_v45" begin="45.00" end="46.00" departSpeed="avg" departLane="1" color="cyan" route="r_0" probability="0.60"/>
	<flow id="taxi_v46" type="taxi_v46" begin="46.00" end="47.00" departSpeed="avg" departLane="3" color="cyan" route="r_0" probability="0.60"/>
	<flow id="taxi_v47" type="taxi_v47" begin="47.00" end="48.00" departSpeed="avg" departLane="3" color="cyan" route="r_0" probability="0.60"/>
	<flow id="taxi_v48" type="taxi_v48" begin="48.00" end="49.00" departSpeed="avg" departLane="1" color="cyan" route="r_0" probability="0.60"/>
	<flow id="taxi_v49" type="taxi_v49" begin="49.00" end="50.00" departSpeed="avg" departLane="2" color="cyan" route="r_0" probability="0.60"/>
	<flow id="taxi_v50" type="taxi_v50" begin="50.00" end="51.00" departSpeed="avg" departLane="1" color="cyan" route="r_0" probability="0.60"/>
	<flow id="taxi_v51" type="taxi_v51" begin="51.00" end="52.00" departSpeed="avg" departLane="3" color="cyan" route="r_0" probability="0.60"/>
	<flow id="taxi_v52" type="taxi_v52" begin="52.00" end="53.00" departSpeed="avg" departLane="0" color="cyan" route="r_0" probability="0.60"/>
	<flow id="taxi_v53" type="taxi_v53" begin="53.00" end="54.00" departSpeed="avg" departLane="0" color="cyan" route="r_0" probability="0.60"/>
	<flow id="taxi_v54" type="taxi_v54" begin="54.00" end="55.00" departSpeed="avg" departLane="3" color="cyan" route="r_0" probability="0.60"/>
	<flow id="taxi_v55" type="taxi_v55" begin="55.00" end="56.00" departSpeed="avg" departLane="3" color="cyan" route="r_0" probability="0.60"/>
	<flow id="taxi_v56" type="taxi_v56" begin="56.00" end="57.00" departSpeed="avg" departLane="0" color="cyan" route="r_0" probability="0.60"/>
	<flow id="taxi_v57" type="taxi_v57" begin="57.00" end="58.00" departSpeed="avg" departLane="2" color="cyan" route="r_0" probability="0.60"/>
	<flow id="taxi_v58" type="taxi_v58" begin="58.00" end="59.00" departSpeed="avg" departLane="2" color="cyan" route="r_0" probability="0.60"/>
	<flow id="taxi_v59" type="taxi_v59" begin="59.00" end="60.00" departSpeed="avg" departLane="2" color="cyan" route="r_0" probability="0.60"/>
	<flow id="taxi_v60" type="taxi_v60" begin="60.00" end="61.00" departSpeed="avg" departLane="3" color="cyan" route="r_0" probability="0.60"/>
	<flow id="taxi_v61" type="taxi_v61" begin="61.00" end="62.00" departSpeed="avg" departLane="2" color="cyan" route="r_0" probability="0.60"/>
	<flow id="taxi_v62" type="taxi_v62" begin="62.00" end="63.00" departSpeed="avg" departLane="1" color="cyan" route="r_0" probability="0.60"/>
	<flow id="taxi_v63" type="taxi_v63" begin="63.00" end="64.00" departSpeed="avg" departLane="0" color="cyan" route="r_0" probability="0.60"/>
	<flow id="taxi_v64" type="taxi_v64" begin="64.00" end="65.00" departSpeed="avg" departLane="2" color="cyan" route="r_0" probability="0.60"/>
	<flow id="taxi_v65" type="taxi_v65" begin="65.00" end="66.00" departSpeed="avg" departLane="2" color="cyan" route="r_0" probability="0.60"/>
	<flow id="taxi_v66" type="taxi_v66" begin="66.00" end="67.00" departSpeed="avg" departLane="1" color="cyan" route="r_0" probability="0.60"/>
	<flow id="taxi_v67" type="taxi_v67" begin="67.00" end="68.00" departSpeed="avg" departLane="1" color="cyan" route="r_0" probability="0.60"/>
	<flow id="taxi_v68" type="taxi_v68" begin="68.00" end="69.00" departSpeed="avg" departLane="1" color="cyan" route="r_0" probability="0.60"/>
	<flow id="taxi_v69" type="taxi_v69" begin="69.00" end="70.00" departSpeed="avg" departLane="1" color="cyan" route="r_0" probability="0.60"/>
	<flow id="taxi_v70" type="taxi_v70" begin="70.00" end="71.00" departSpeed="avg" departLane="1" color="cyan" route="r_0" probability="0.60"/>
	<flow id="taxi_v71" type="taxi_v71" begin="71.00" end="72.00" departSpeed="avg" departLane="1" color="cyan" route="r_0" probability="0.60"/>
	<flow id="taxi_v72" type="taxi_v72" begin="72.00" end="73.00" departSpeed="avg" departLane="2" color="cyan" route="r_0" probability="0.60"/>
	<flow id="taxi_v73" type="taxi_v73" begin="73.00" end="74.00" departSpeed="avg" departLane="3" color="cyan" route="r_0" probability="0.60"/>
	<flow id="taxi_v74" type="taxi_v74" begin="74.00" end="75.00" departSpeed="avg" departLane="0" color="cyan" route="r_0" probability="0.60"/>
	<flow id="taxi_v75" type="taxi_v75" begin="75.00" end="76.00" departSpeed="avg" departLane="3" color="cyan" route="r_0" probability="0.60"/>
	<flow id="taxi_v76" type="taxi_v76" begin="76.00" end="77.00" departSpeed="avg" departLane="0" color="cyan" route="r_0" probability="0.60"/>
	<flow id="taxi_v77" type="taxi_v77" begin="77.00" end="78.00" departSpeed="avg" departLane="1" color="cyan" route="r_0" probability="0.60"/>
	<flow id="taxi_v78" type="taxi_v78" begin="78.00" end="79.00" departSpeed="avg" departLane="1" color="cyan" route="r_0" probability="0.60"/>
	<flow id="taxi_v79" type="taxi_v79" begin="79.00" end="80.00" departSpeed="avg" departLane="3" color="cyan" route="r_0" probability="0.60"/>
	<flow id="taxi_v80" type="taxi_v80" begin="80.00" end="81.00" departSpeed="avg" departLane="0" color="cyan" route="r_0" probability="0.60"/>
	<flow id="taxi_v81" type="taxi_v81" begin="81.00" end="82.00" departSpeed="avg" departLane="3" color="cyan" route="r_0" probability="0.60"/>
	<flow id="taxi_v82" type="taxi_v82" begin="82.00" end="83.00" departSpeed="avg" departLane="3" color="cyan" route="r_0" probability="0.60"/>
	<flow id="taxi_v83" type="taxi_v83" begin="83.00" end="84.00" departSpeed="avg" departLane="1" color="cyan" route="r_0" probability="0.60"/>
	<flow id="taxi_v84" type="taxi_v84" begin="84.00" end="85.00" departSpeed="avg" departLane="1" color="cyan" route="r_0" probability="0.60"/>
	<flow id="taxi_v85" type="taxi_v85" begin="85.00" end="86.00" departSpeed="avg" departLane="0" color="cyan" route="r_0" probability="0.60"/>
	<flow id="taxi_v86" type="taxi_v86" begin="86.00" end="87.00" departSpeed="avg" departLane="0" color="cyan" route="r_0" probability="0.60"/>
	<flow id="taxi_v87" type="taxi_v87" begin="87.00" end="88.00" departSpeed="avg" departLane="2" color="cyan" route="r_0" probability="0.60"/>
	<flow id="taxi_v88" type="taxi_v88" begin="88.00" end="89.00" departSpeed="avg" departLane="0" color="cyan" route="r_0" probability="0.60"/>
	<flow id="taxi_v89" type="taxi_v89" begin="89.00" end="90.00" departSpeed="avg" departLane="2" color="cyan" route="r_0" probability="0.60"/>
	<flow id="taxi_v90" type="taxi_v90" begin="90.00" end="91.00" departSpeed="avg" departLane="0" color="cyan" route="r_0" probability="0.60"/>
	<flow id="taxi_v91" type="taxi_v91" begin="91.00" end="92.00" departSpeed="avg" departLane="0" color="cyan" route="r_0" probability="0.60"/>
	<flow id="taxi_v92" type="taxi_v92" begin="92.00" end="93.00" departSpeed="avg" departLane="3" color="cyan" route="r_0" probability="0.60"/>
	<flow id="taxi_v93" type="taxi_v93" begin="93.00" end="94.00" departSpeed="avg" departLane="0" color="cyan" route="r_0" probability="0.60"/>
	<flow id="taxi_v94" type="taxi_v94" begin="94.00" end="95.00" departSpeed="avg" departLane="3" color="cyan" route="r_0" probability="0.60"/>
	<flow id="taxi_v95" type="taxi_v95" begin="95.00" end="96.00" departSpeed="avg" departLane="3" color="cyan" route="r_0" probability="0.60"/>
	<flow id="taxi_v96" type="taxi_v96" begin="96.00" end="97.00" departSpeed="avg" departLane="0" color="cyan" route="r_0" probability="0.60"/>
	<flow id="taxi_v97" type="taxi_v97" begin="97.00" end="98.00" departSpeed="avg" departLane="3" color="cyan" route="r_0" probability="0.60"/>
	<flow id="taxi_v98" type="taxi_v98" begin="98.00" end="99.00" departSpeed="avg" departLane="1" color="cyan" route="r_0" probability="0.60"/>
	<flow id="taxi_v99" type="taxi_v99" begin="99.00" end="100.00" departSpeed="avg" departLane="2" color="cyan" route="r_0" probability="0.60"/>
	<flow id="taxi_v100" type="taxi_v100" begin="100.00" end="101.00" departSpeed="avg" departLane="2" color="cyan" route="r_0" probability="0.60"/>
	<flow id="taxi_v101" type="taxi_v101" begin="101.00" end="102.00" departSpeed="avg" departLane="0" color="cyan" route="r_0" probability="0.60"/>
	<flow id="taxi_v102" type="taxi_v102" begin="102.00" end="103.00" departSpeed="avg" departLane="2" color="cyan" route="r_0" probability="0.60"/>
	<flow id="taxi_v103" type="taxi_v103" begin="103.00" end="104.00" departSpeed="avg" departLane="2" color="cyan" route="r_0" probability="0.60"/>
	<flow id="taxi_v104" type="taxi_v104" begin="104.00" end="105.00" departSpeed="avg" departLane="1" color="cyan" route="r_0" probability="0.60"/>
	<flow id="taxi_v105" type="taxi_v105" begin="105.00" end="106.00" departSpeed="avg" departLane="3" color="cyan" route="r_0" probability="0.60"/>
	<flow id="taxi_v106" type="taxi_v106" begin="106.00" end="107.00" departSpeed="avg" departLane="1" color="cyan" route="r_0" probability="0.60"/>
	<flow id="taxi_v107" type="taxi_v107" begin="107.00" end="108.00" departSpeed="avg" departLane="2" color="cyan" route="r_0" probability="0.60"/>
	<flow id="taxi_v108" type="taxi_v108" begin="108.00" end="109.00" departSpeed="avg" departLane="1" color="cyan" route="r_0" probability="0.60"/>
	<flow id="taxi_v109" type="taxi_v109" begin="109.00" end="110.00" departSpeed="avg" departLane="1" color="cyan" route="r_0" probability="0.60"/>
	<flow id="taxi_v110" type="taxi_v110" begin="110.00" end="111.00" departSpeed="avg" departLane="3" color="cyan" route="r_0" probability="0.60"/>
	<flow id="taxi_v111" type="taxi_v111" begin="111.00" end="112.00" departSpeed="avg" departLane="2" color="cyan" route="r_0" probability="0.60"/>
	<flow id="taxi_v112" type="taxi_v112" begin="112.00" end="113.00" departSpeed="avg" departLane="3" color="cyan" route="r_0" probability="0.60"/>
	<flow id="taxi_v113" type="taxi_v113" begin="113.00" end="114.00" departSpeed="avg" departLane="1" color="cyan" route="r_0" probability="0.60"/>
	<flow id="taxi_v114" type="taxi_v114" begin="114.00" end="115.00" departSpeed="avg" departLane="2" color="cyan" route="r_0" probability="0.60"/>
	<flow id="taxi_v115" type="taxi_v115" begin="115.00" end="116.00" departSpeed="avg" departLane="2" color="cyan" route="r_0" probability="0.60"/>
	<flow id="taxi_v116" type="taxi_v116" begin="116.00" end="117.00" departSpeed="avg" departLane="0" color="cyan" route="r_0" probability="0.60"/>
	<flow id="taxi_v117" type="taxi_v117" begin="117.00" end="118.00" departSpeed="avg" departLane="3" color="cyan" route="r_0" probability="0.60"/>
	<flow id="taxi_v118" type="taxi_v118" begin="118.00" end="119.00" departSpeed="avg" departLane="3" color="cyan" route="r_0" probability="0.60"/>
	<flow id="taxi_v119" type="taxi_v119" begin="119.00" end="120.00" departSpeed="avg" departLane="2" color="cyan" route="r_0" probability="0.60"/>
	<flow id="taxi_v120" type="taxi_v120" begin="120.00" end="121.00" departSpeed="avg" departLane="0" color="cyan" route="r_0" probability="0.60"/>
	<flow id="taxi_v121" type="taxi_v121" begin="121.00" end="122.00" departSpeed="avg" departLane="0" color="cyan" route="r_0" probability="0.60"/>
	<flow id="taxi_v122" type="taxi_v122" begin="122.00" end="123.00" departSpeed="avg" departLane="2" color="cyan" route="r_0" probability="0.60"/>
	<flow id="taxi_v123" type="taxi_v123" begin="123.00" end="124.00" departSpeed="avg" departLane="2" color="cyan" route="r_0" probability="0.60"/>
	<flow id="taxi_v124" type="taxi_v124" begin="124.00" end="125.00" departSpeed="avg" departLane="2" color="cyan" route="r_0" probability="0.60"/>
	<flow id="taxi_v125" type="taxi_v125" begin="125.00" end="126.00" departSpeed="avg" departLane="2" color="cyan" route="r_0" probability="0.60"/>
	<flow id="taxi_v126" type="taxi_v126" begin="126.00" end="127.00" departSpeed="avg" departLane="2" color="cyan" route="r_0" probability="0.60"/>
	<flow id="taxi_v127" type="taxi_v127" begin="127.00" end="128.00" departSpeed="avg" departLane="0" color="cyan" route="r_0" probability="0.60"/>
	<flow id="taxi_v128" type="taxi_v128" begin="128.00" end="129.00" departSpeed="avg" departLane="2" color="cyan" route="r_0" probability="0.60"/>
	<flow id="taxi_v129" type="taxi_v129" begin="129.00" end="130.00" departSpeed="avg" departLane="2" color="cyan" route="r_0" probability="0.60"/>
	<flow id="taxi_v130" type="taxi_v130" begin="130.00" end="131.00" departSpeed="avg" departLane="3" color="cyan" route="r_0" probability="0.60"/>
	<flow id="taxi_v131" type="taxi_v131" begin="131.00" end="132.00" departSpeed="avg" departLane="3" color="cyan" route="r_0" probability="0.60"/>
	<flow id="taxi_v132" type="taxi_v132" begin="132.00" end="133.00" departSpeed="avg" departLane="2" color="cyan" route="r_0" probability="0.60"/>
	<flow id="taxi_v133" type="taxi_v133" begin="133.00" end="134.00" departSpeed="avg" departLane="1" color="cyan" route="r_0" probability="0.60"/>
	<flow id="taxi_v134" type="taxi_v134" begin="134.00" end="135.00" departSpeed="avg" departLane="3" color="cyan" route="r_0" probability="0.60"/>
	<flow id="taxi_v135" type="taxi_v135" begin="135.00" end="136.00" departSpeed="avg" departLane="2" color="cyan" route="r_0" probability="0.60"/>
	<flow id="taxi_v136" type="taxi_v136" begin="136.00" end="137.00" departSpeed="avg" departLane="1" color="cyan" route="r_0" probability="0.60"/>
	<flow id="taxi_v137" type="taxi_v137" begin="137.00" end="138.00" departSpeed="avg" departLane="1" color="cyan" route="r_0" probability="0.60"/>
	<flow id="taxi_v138" type="taxi_v138" begin="138.00" end="139.00" departSpeed="avg" departLane="1" color="cyan" route="r_0" probability="0.60"/>
	<flow id="taxi_v139" type="taxi_v139" begin="139.00" end="140.00" departSpeed="avg" departLane="2" color="cyan" route="r_0" probability="0.60"/>
	<flow id="taxi_v140" type="taxi_v140" begin="140.00" end="141.00" departSpeed="avg" departLane="0" color="cyan" route="r_0" probability="0.60"/>
	<flow id="taxi_v141" type="taxi_v141" begin="141.00" end="142.00" departSpeed="avg" departLane="1" color="cyan" route="r_0" probability="0.60"/>
	<flow id="taxi_v142" type="taxi_v142" begin="142.00" end="143.00" departSpeed="avg" departLane="2" color="cyan" route="r_0" probability="0.60"/>
	<flow id="taxi_v143" type="taxi_v143" begin="143.00" end="144.00" departSpeed="avg" departLane="1" color="cyan" route="r_0" probability="0.60"/>
	<flow id="taxi_v144" type="taxi_v144" begin="144.00" end="145.00" departSpeed="avg" departLane="0" color="cyan" route="r_0" probability="0.60"/>
	<flow id="taxi_v145" type="taxi_v145" begin="145.00" end="146.00" departSpeed="avg" departLane="2" color="cyan" route="r_0" probability="0.60"/>
	<flow id="taxi_v146" type="taxi_v146" begin="146.00" end="147.00" departSpeed="avg" departLane="3" color="cyan" route="r_0" probability="0.60"/>
	<flow id="taxi_v147" type="taxi_v147" begin="147.00" end="148.00" departSpeed="avg" departLane="0" color="cyan" route="r_0" probability="0.60"/>
	<flow id="taxi_v148" type="taxi_v148" begin="148.00" end="149.00" departSpeed="avg" departLane="3" color="cyan" route="r_0" probability="0.60"/>
	<flow id="taxi_v149" type="taxi_v149" begin="149.00" end="150.00" departSpeed="avg" departLane="2" color="cyan" route="r_0" probability="0.60"/>
	<flow id="taxi_v150" type="taxi_v150" begin="150.00" end="151.00" departSpeed="avg" departLane="2" color="cyan" route="r_0" probability="0.60"/>
	<flow id="taxi_v151" type="taxi_v151" begin="151.00" end="152.00" departSpeed="avg" departLane="3" color="cyan" route="r_0" probability="0.60"/>
	<flow id="taxi_v152" type="taxi_v152" begin="152.00" end="153.00" departSpeed="avg" departLane="3" color="cyan" route="r_0" probability="0.60"/>
	<flow id="taxi_v153" type="taxi_v153" begin="153.00" end="154.00" departSpeed="avg" departLane="3" color="cyan" route="r_0" probability="0.60"/>
	<flow id="taxi_v154" type="taxi_v154" begin="154.00" end="155.00" departSpeed="avg" departLane="2" color="cyan" route="r_0" probability="0.60"/>
	<flow id="taxi_v155" type="taxi_v155" begin="155.00" end="156.00" departSpeed="avg" departLane="3" color="cyan" route="r_0" probability="0.60"/>
	<flow id="taxi_v156" type="taxi_v156" begin="156.00" end="157.00" departSpeed="avg" departLane="1" color="cyan" route="r_0" probability="0.60"/>
	<flow id="taxi_v157" type="taxi_v157" begin="157.00" end="158.00" departSpeed="avg" departLane="3" color="cyan" route="r_0" probability="0.60"/>
	<flow id="taxi_v158" type="taxi_v158" begin="158.00" end="159.00" departSpeed="avg" departLane="2" color="cyan" route="r_0" probability="0.60"/>
	<flow id="taxi_v159" type="taxi_v159" begin="159.00" end="160.00" departSpeed="avg" departLane="3" color="cyan" route="r_0" probability="0.60"/>
	<flow id="taxi_v160" type="taxi_v160" begin="160.00" end="161.00" departSpeed="avg" departLane="1" color="cyan" route="r_0" probability="0.60"/>
	<flow id="taxi_v161" type="taxi_v161" begin="161.00" end="162.00" departSpeed="avg" departLane="2" color="cyan" route="r_0" probability="0.60"/>
	<flow id="taxi_v162" type="taxi_v162" begin="162.00" end="163.00" departSpeed="avg" departLane="2" color="cyan" route="r_0" probability="0.60"/>
	<flow id="taxi_v163" type="taxi_v163" begin="163.00" end="164.00" departSpeed="avg" departLane="2" color="cyan" route="r_0" probability="0.60"/>
	<flow id="taxi_v164" type="taxi_v164" begin="164.00" end="165.00" departSpeed="avg" departLane="3" color="cyan" route="r_0" probability="0.60"/>
	<flow id="taxi_v165" type="taxi_v165" begin="165.00" end="166.00" departSpeed="avg" departLane="0" color="cyan" route="r_0" probability="0.60"/>
	<flow id="taxi_v166" type="taxi_v166" begin="166.00" end="167.00" departSpeed="avg" departLane="3" color="cyan" route="r_0" probability="0.60"/>
	<flow id="taxi_v167" type="taxi_v167" begin="167.00" end="168.00" departSpeed="avg" departLane="2" color="cyan" route="r_0" probability="0.60"/>
	<flow id="taxi_v168" type="taxi_v168" begin="168.00" end="169.00" departSpeed="avg" departLane="3" color="cyan" route="r_0" probability="0.60"/>
	<flow id="taxi_v169" type="taxi_v169" begin="169.00" end="170.00" departSpeed="avg" departLane="1" color="cyan" route="r_0" probability="0.60"/>
	<flow id="taxi_v170" type="taxi_v170" begin="170.00" end="171.00" departSpeed="avg" departLane="1" color="cyan" route="r_0" probability="0.60"/>
	<flow id="taxi_v171" type="taxi_v171" begin="171.00" end="172.00" departSpeed="avg" departLane="1" color="cyan" route="r_0" probability="0.60"/>
	<flow id="taxi_v172" type="taxi_v172" begin="172.00" end="173.00" departSpeed="avg" departLane="0" color="cyan" route="r_0" probability="0.60"/>
	<flow id="taxi_v173" type="taxi_v173" begin="173.00" end="174.00" departSpeed="avg" departLane="2" color="cyan" route="r_0" probability="0.60"/>
	<flow id="taxi_v174" type="taxi_v174" begin="174.00" end="175.00" departSpeed="avg" departLane="3" color="cyan" route="r_0" probability="0.60"/>
	<flow id="taxi_v175" type="taxi_v175" begin="175.00" end="176.00" departSpeed="avg" departLane="1" color="cyan" route="r_0" probability="0.60"/>
	<flow id="taxi_v176" type="taxi_v176" begin="176.00" end="177.00" departSpeed="avg" departLane="2" color="cyan" route="r_0" probability="0.60"/>
	<flow id="taxi_v177" type="taxi_v177" begin="177.00" end="178.00" departSpeed="avg" departLane="2" color="cyan" route="r_0" probability="0.60"/>
	<flow id="taxi_v178" type="taxi_v178" begin="178.00" end="179.00" departSpeed="avg" departLane="3" color="cyan" route="r_0" probability="0.60"/>
	<flow id="taxi_v179" type="taxi_v179" begin="179.00" end="180.00" departSpeed="avg" departLane="3" color="cyan" route="r_0" probability="0.60"/>
	<flow id="taxi_v180" type="taxi_v180" begin="180.00" end="181.00" departSpeed="avg" departLane="1" color="cyan" route="r_0" probability="0.60"/>
	<flow id="taxi_v181" type="taxi_v181" begin="181.00" end="182.00" departSpeed="avg" departLane="2" color="cyan" route="r_0" probability="0.60"/>
	<flow id="taxi_v182" type="taxi_v182" begin="182.00" end="183.00" departSpeed="avg" departLane="1" color="cyan" route="r_0" probability="0.60"/>
	<flow id="taxi_v183" type="taxi_v183" begin="183.00" end="184.00" departSpeed="avg" departLane="2" color="cyan" route="r_0" probability="0.60"/>
	<flow id="taxi_v184" type="taxi_v184" begin="184.00" end="185.00" departSpeed="avg" departLane="2" color="cyan" route="r_0" probability="0.60"/>
	<flow id="taxi_v185" type="taxi_v185" begin="185.00" end="186.00" departSpeed="avg" departLane="3" color="cyan" route="r_0" probability="0.60"/>
	<flow id="taxi_v186" type="taxi_v186" begin="186.00" end="187.00" departSpeed="avg" departLane="1" color="cyan" route="r_0" probability="0.60"/>
	<flow id="taxi_v187" type="taxi_v187" begin="187.00" end="188.00" departSpeed="avg" departLane="3" color="cyan" route="r_0" probability="0.60"/>
	<flow id="taxi_v188" type="taxi_v188" begin="188.00" end="189.00" departSpeed="avg" departLane="0" color="cyan" route="r_0" probability="0.60"/>
	<flow id="taxi_v189" type="taxi_v189" begin="189.00" end="190.00" departSpeed="avg" departLane="2" color="cyan" route="r_0" probability="0.60"/>
	<flow id="taxi_v190" type="taxi_v190" begin="190.00" end="191.00" departSpeed="avg" departLane="2" color="cyan" route="r_0" probability="0.60"/>
	<flow id="taxi_v191" type="taxi_v191" begin="191.00" end="192.00" departSpeed="avg" departLane="3" color="cyan" route="r_0" probability="0.60"/>
	<flow id="taxi_v192" type="taxi_v192" begin="192.00" end="193.00" departSpeed="avg" departLane="3" color="cyan" route="r_0" probability="0.60"/>
	<flow id="taxi_v193" type="taxi_v193" begin="193.00" end="194.00" departSpeed="avg" departLane="3" color="cyan" route="r_0" probability="0.60"/>
	<flow id="taxi_v194" type="taxi_v194" begin="194.00" end="195.00" departSpeed="avg" departLane="2" color="cyan" route="r_0" probability="0.60"/>
	<flow id="taxi_v195" type="taxi_v195" begin="195.00" end="196.00" departSpeed="avg" departLane="3" color="cyan" route="r_0" probability="0.60"/>
	<flow id="taxi_v196" type="taxi_v196" begin="196.00" end="197.00" departSpeed="avg" departLane="1" color="cyan" route="r_0" probability="0.60"/>
	<flow id="taxi_v197" type="taxi_v197" begin="197.00" end="198.00" departSpeed="avg" departLane="0" color="cyan" route="r_0" probability="0.60"/>
	<flow id="taxi_v198" type="taxi_v198" begin="198.00" end="199.00" departSpeed="avg" departLane="2" color="cyan" route="r_0" probability="0.60"/>
	<flow id="taxi_v199" type="taxi_v199" begin="199.00" end="200.00" departSpeed="avg" departLane="3" color="cyan" route="r_0" probability="0.60"/>
	<vehicle id="v_1" type="emv" depart="200.00" departSpeed="max" departLane="0" color="red" route="r_0"/>
	<flow id="taxi_v201" type="taxi_v201" begin="201.00" end="202.00" departSpeed="avg" departLane="1" color="cyan" route="r_0" probability="0.60"/>
	<flow id="taxi_v202" type="taxi_v202" begin="202.00" end="203.00" departSpeed="avg" departLane="1" color="cyan" route="r_0" probability="0.60"/>
	<flow id="taxi_v203" type="taxi_v203" begin="203.00" end="204.00" departSpeed="avg" departLane="0" color="cyan" route="r_0" probability="0.60"/>
	<flow id="taxi_v204" type="taxi_v204" begin="204.00" end="205.00" departSpeed="avg" departLane="3" color="cyan" route="r_0" probability="0.60"/>
	<flow id="taxi_v205" type="taxi_v205" begin="205.00" end="206.00" departSpeed="avg" departLane="0" color="cyan" route="r_0" probability="0.60"/>
	<flow id="taxi_v206" type="taxi_v206" begin="206.00" end="207.00" departSpeed="avg" departLane="1" color="cyan" route="r_0" probability="0.60"/>