<net xmlns:xsi="http://www.w3.org/2001/XMLSchema-instance" version="1.16" junctionCornerDetail="5" limitTurnSpeed="5.50" xsi:noNamespaceSchemaLocation="http://sumo.dlr.de/xsd/net_file.xsd">
    <location netOffset="0.00,0.00" convBoundary="0.00,0.00,4000.0,0.00" origBoundary="-10000000000.00,-10000000000.00,10000000000.00,10000000000.00" projParameter="!"/>
    <edge id="E0" from="J0" to="J1" priority="-1">
    <lane id="E0_0" index="0" speed="16.667" length="4000.0" shape="0.00,-3.2 4000.0,-3.2"/>
<lane id="E0_1" index="1" speed="16.667" length="4000.0" shape="0.00,0.0 4000.0,0.0"/>
<lane id="E0_2" index="2" speed="16.667" length="4000.0" shape="0.00,3.2 4000.0,3.2"/>
<lane id="E0_3" index="3" speed="16.667" length="4000.0" shape="0.00,6.4 4000.0,6.4"/>
<junction id="J0" type="dead_end" x="0.00" y="0.00" incLanes="" intLanes="" shape="0.00,0.00 0.00,12.8"/>
<junction id="J1" type="dead_end" x="4000.0" y="0.00" incLanes="E0_0 E0_1 E0_2 E0_3" intLanes="" shape="4000.0,12.8 4000.0,0.00"/>
<vehicleTypes>
<vType id="taxi" accel="0.8" decel="4.5" length="3.0" maxSpeed="25.0" guiShape="passenger"/>
<vType id="emv" vClass="emergency"/>
<vType id="taxi_v0" accel="0.8" decel="4.5" length="3.0" maxSpeed="16.67" guiShape="passenger"/>
<vType id="taxi_v1" accel="0.8" decel="4.5" length="3.0" maxSpeed="16.67" guiShape="passenger"/>
<vType id="taxi_v2" accel="0.8" decel="4.5" length="3.0" maxSpeed="16.67" guiShape="passenger"/>
<vType id="taxi_v3" accel="0.8" decel="4.5" length="3.0" maxSpeed="16.67" guiShape="passenger"/>
<vType id="taxi_v4" accel="0.8" decel="4.5" length="3.0" maxSpeed="16.67" guiShape="passenger"/>
<vType id="taxi_v5" accel="0.8" decel="4.5" length="3.0" maxSpeed="16.67" guiShape="passenger"/>
<vType id="taxi_v6" accel="0.8" decel="4.5" length="3.0" maxSpeed="16.67" guiShape="passenger"/>
<vType id="taxi_v7" accel="0.8" decel="4.5" length="3.0" maxSpeed="16.67" guiShape="passenger"/>
<vType id="taxi_v8" accel="0.8" decel="4.5" length="3.0" maxSpeed="16.67" guiShape="passenger"/>
<vType id="taxi_v9" accel="0.8" decel="4.5" length="3.0" maxSpeed="16.67" guiShape="passenger"/>
<vType id="taxi_v10" accel="0.8" decel="4.5" length="3.0" maxSpeed="16.67" guiShape="passenger"/>
<vType id="taxi_v11" accel="0.8" decel="4.5" length="3.0" maxSpeed="16.67" guiShape="passenger"/>
<vType id="taxi_v12" accel="0.8" decel="4.5" length="3.0" maxSpeed="16.67" guiShape="passenger"/>
<vType id="taxi_v13" accel="0.8" decel="4.5" length="3.0" maxSpeed="16.67" guiShape="passenger"/>
<vType id="taxi_v14" accel="0.8" decel="4.5" length="3.0" maxSpeed="16.67" guiShape="passenger"/>
<vType id="taxi_v15" accel="0.8" decel="4.5" length="3.0" maxSpeed="16.67" guiShape="passenger"/>
<vType id="taxi_v16" accel="0.8" decel="4.5" length="3.0" maxSpeed="16.67" guiShape="passenger"/>
<vType id="taxi_v17" accel="0.8" decel="4.5" length="3.0" maxSpeed="16.67" guiShape="passenger"/>
<vType id="taxi_v18" accel="0.8" decel="4.5" length="3.0" maxSpeed="16.67" guiShape="passenger"/>
<vType id="taxi_v19" accel="0.8" decel="4.5" length="3.0" maxSpeed="16.67" guiShape="passenger"/>
<vType id="taxi_v20" accel="0.8" decel="4.5" length="3.0" maxSpeed="16.67" guiShape="passenger"/>
<vType id="taxi_v21" accel="0.8" decel="4.5" length="3.0" maxSpeed="16.67" guiShape="passenger"/>
<vType id="taxi_v22" accel="0.8" decel="4.5" length="3.0" maxSpeed="16.67" guiShape="passenger"/>
<vType id="taxi_v23" accel="0.8" decel="4.5" length="3.0" maxSpeed="16.67" guiShape="passenger"/>
<vType id="taxi_v24" accel="0.8" decel="4.5" length="3.0" maxSpeed="16.67" guiShape="passenger"/>
<vType id="taxi_v25" accel="0.8" decel="4.5" length="3.0" maxSpeed="16.67" guiShape="passenger"/>
<vType id="taxi_v26" accel="0.8" decel="4.5" length="3.0" maxSpeed="16.67" guiShape="passenger"/>
<vType id="taxi_v27" accel="0.8" decel="4.5" length="3.0" maxSpeed="16.67" guiShape="passenger"/>
<vType id="taxi_v28" accel="0.8" decel="4.5" length="3.0" maxSpeed="16.67" guiShape="passenger"/>
<vType id="taxi_v29" accel="0.8" decel="4.5" length="3.0" maxSpeed="16.67" guiShape="passenger"/>
<vType id="taxi_v30" accel="0.8" decel="4.5" length="3.0" maxSpeed="16.67" guiShape="passenger"/>
<vType id="taxi_v31" accel="0.8" decel="4.5" length="3.0" maxSpeed="16.67" guiShape="passenger"/>
<vType id="taxi_v32" accel="0.8" decel="4.5" length="3.0" maxSpeed="16.67" guiShape="passenger"/>
<vType id="taxi_v33" accel="0.8" decel="4.5" length="3.0" maxSpeed="16.67" guiShape="passenger"/>
<vType id="taxi_v34" accel="0.8" decel="4.5" length="3.0" maxSpeed="16.67" guiShape="passenger"/>
<vType id="taxi_v35" accel="0.8" decel="4.5" length="3.0" maxSpeed="16.67" guiShape="passenger"/>
<vType id="taxi_v36" accel="0.8" decel="4.5" length="3.0" maxSpeed="16.67" guiShape="passenger"/>
<vType id="taxi_v37" accel="0.8" decel="4.5" length="3.0" maxSpeed="16.67" guiShape="passenger"/>
<vType id="taxi_v38" accel="0.8" decel="4.5" length="3.0" maxSpeed="16.67" guiShape="passenger"/>
<vType id="taxi_v39" accel="0.8" decel="4.5" length="3.0" maxSpeed="16.67" guiShape="passenger"/>
<vType id="taxi_v40" accel="0.8" decel="4.5" length="3.0" maxSpeed="16.67" guiShape="passenger"/>
<vType id="taxi_v41" accel="0.8" decel="4.5" length="3.0" maxSpeed="16.67" guiShape="passenger"/>
<vType id="taxi_v42" accel="0.8" decel="4.5" length="3.0" maxSpeed="16.67" guiShape="passenger"/>
<vType id="taxi_v43" accel="0.8" decel="4.5" length="3.0" maxSpeed="16.67" guiShape="passenger"/>
<vType id="taxi_v44" accel="0.8" decel="4.5" length="3.0" maxSpeed="16.67" guiShape="passenger"/>
<vType id="taxi_v45" accel="0.8" decel="4.5" length="3.0" maxSpeed="16.67" guiShape="passenger"/>
<vType id="taxi_v46" accel="0.8" decel="4.5" length="3.0" maxSpeed="16.67" guiShape="passenger"/>
<vType id="taxi_v47" accel="0.8" decel="4.5" length="3.0" maxSpeed="16.67" guiShape="passenger"/>
<vType id="taxi_v48" accel="0.8" decel="4.5" length="3.0" maxSpeed="16.67" guiShape="passenger"/>
<vType id="taxi_v49" accel="0.8" decel="4.5" length="3.0" maxSpeed="16.67" guiShape="passenger"/>
<vType id="taxi_v50" accel="0.8" decel="4.5" length="3.0" maxSpeed="16.67" guiShape="passenger"/>
<vType id="taxi_v51" accel="0.8" decel="4.5" length="3.0" maxSpeed="16.67" guiShape="passenger"/>
<vType id="taxi_v52" accel="0.8" decel="4.5" length="3.0" maxSpeed="16.67" guiShape="passenger"/>
<vType id="taxi_v53" accel="0.8" decel="4.5" length="3.0" maxSpeed="16.67" guiShape="passenger"/>
<vType id="taxi_v54" accel="0.8" decel="4.5" length="3.0" maxSpeed="16.67" guiShape="passenger"/>
<vType id="taxi_v55" accel="0.8" decel="4.5" length="3.0" maxSpeed="16.67" guiShape="passenger"/>
<vType id="taxi_v56" accel="0.8" decel="4.5" length="3.0" maxSpeed="16.67" guiShape="passenger"/>
<vType id="taxi_v57" accel="0.8" decel="4.5" length="3.0" maxSpeed="16.67" guiShape="passenger"/>
<vType id="taxi_v58" accel="0.8" decel="4.5" length="3.0" maxSpeed="16.67" guiShape="passenger"/>
<vType id="taxi_v59" accel="0.8" decel="4.5" length="3.0" maxSpeed="16.67" guiShape="passenger"/>
<vType id="taxi_v60" accel="0.8" decel="4.5" length="3.0" maxSpeed="16.67" guiShape="passenger"/>
<vType id="taxi_v61" accel="0.8" decel="4.5" length="3.0" maxSpeed="16.67" guiShape="passenger"/>
<vType id="taxi_v62" accel="0.8" decel="4.5" length="3.0" maxSpeed="16.67" guiShape="passenger"/>
<vType id="taxi_v63" accel="0.8" decel="4.5" length="3.0" maxSpeed="16.67" guiShape="passenger"/>
<vType id="taxi_v64" accel="0.8" decel="4.5" length="3.0" maxSpeed="16.67" guiShape="passenger"/>
<vType id="taxi_v65" accel="0.8" decel="4.5" length="3.0" maxSpeed="16.67" guiShape="passenger"/>
<vType id="taxi_v66" accel="0.8" decel="4.5" length="3.0" maxSpeed="16.67" guiShape="passenger"/>
<vType id="taxi_v67" accel="0.8" decel="4.5" length="3.0" maxSpeed="16.67" guiShape="passenger"/>
<vType id="taxi_v68" accel="0.8" decel="4.5" length="3.0" maxSpeed="16.67" guiShape="passenger"/>
<vType id="taxi_v69" accel="0.8" decel="4.5" length="3.0" maxSpeed="16.67" guiShape="passenger"/>
<vType id="taxi_v70" accel="0.8" decel="4.5" length="3.0" maxSpeed="16.67" guiShape="passenger"/>
<vType id="taxi_v71" accel="0.8" decel="4.5" length="3.0" maxSpeed="16.67" guiShape="passenger"/>
<vType id="taxi_v72" accel="0.8" decel="4.5" length="3.0" maxSpeed="16.67" guiShape="passenger"/>
<vType id="taxi_v73" accel="0.8" decel="4.5" length="3.0" maxSpeed="16.67" guiShape="passenger"/>
<vType id="taxi_v74" accel="0.8" decel="4.5" length="3.0" maxSpeed="16.67" guiShape="passenger"/>
<vType id="taxi_v75" accel="0.8" decel="4.5" length="3.0" maxSpeed="16.67" guiShape="passenger"/>
<vType id="taxi_v76" accel="0.8" decel="4.5" length="3.0" maxSpeed="16.67" guiShape="passenger"/>
<vType id="taxi_v77" accel="0.8" decel="4.5" length="3.0" maxSpeed="16.67" guiShape="passenger"/>
<vType id="taxi_v78" accel="0.8" decel="4.5" length="3.0" maxSpeed="16.67" guiShape="passenger"/>
<vType id="taxi_v79" accel="0.8" decel="4.5" length="3.0" maxSpeed="16.67" guiShape="passenger"/>
<vType id="taxi_v80" accel="0.8" decel="4.5" length="3.0" maxSpeed="16.67" guiShape="passenger"/>
<vType id="taxi_v81" accel="0.8" decel="4.5" length="3.0" maxSpeed="16.67" guiShape="passenger"/>
<vType id="taxi_v82" accel="0.8" decel="4.5" length="3.0" maxSpeed="16.67" guiShape="passenger"/>
<vType id="taxi_v83" accel="0.8" decel="4.5" length="3.0" maxSpeed="16.67" guiShape="passenger"/>
<vType id="taxi_v84" accel="0.8" decel="4.5" length="3.0" maxSpeed="16.67" guiShape="passenger"/>
<vType id="taxi_v85" accel="0.8" decel="4.5" length="3.0" maxSpeed="16.67" guiShape="passenger"/>
<vType id="taxi_v86" accel="0.8" decel="4.5" length="3.0" maxSpeed="16.67" guiShape="passenger"/>
<vType id="taxi_v87" accel="0.8" decel="4.5" length="3.0" maxSpeed="16.67" guiShape="passenger"/>
<vType id="taxi_v88" accel="0.8" decel="4.5" length="3.0" maxSpeed="16.67" guiShape="passenger"/>
<vType id="taxi_v89" accel="0.8" decel="4.5" length="3.0" maxSpeed="16.67" guiShape="passenger"/>
<vType id="taxi_v90" accel="0.8" decel="4.5" length="3.0" maxSpeed="16.67" guiShape="passenger"/>
<vType id="taxi_v91" accel="0.8" decel="4.5" length="3.0" maxSpeed="16.67" guiShape="passenger"/>
<vType id="taxi_v92" accel="0.8" decel="4.5" length="3.0" maxSpeed="16.67" guiShape="passenger"/>
<vType id="taxi_v93" accel="0.8" decel="4.5" length="3.0" maxSpeed="16.67" guiShape="passenger"/>
<vType id="taxi_v94" accel="0.8" decel="4.5" length="3.0" maxSpeed="16.67" guiShape="passenger"/>
<vType id="taxi_v95" accel="0.8" decel="4.5" length="3.0" maxSpeed="16.67" guiShape="passenger"/>
<vType id="taxi_v96" accel="0.8" decel="4.5" length="3.0" maxSpeed="16.67" guiShape="passenger"/>
<vType id="taxi_v97" accel="0.8" decel="4.5" length="3.0" maxSpeed="16.67" guiShape="passenger"/>
<vType id="taxi_v98" accel="0.8" decel="4.5" length="3.0" maxSpeed="16.67" guiShape="passenger"/>
<vType id="taxi_v99" accel="0.8" decel="4.5" length="3.0" maxSpeed="16.67" guiShape="passenger"/>
<vType id="taxi_v100" accel="0.8" decel="4.5" length="3.0" maxSpeed="16.67" guiShape="passenger"/>
<vType id="taxi_v101" accel="0.8" decel="4.5" length="3.0" maxSpeed="16.67" guiShape="passenger"/>
<vType id="taxi_v102" accel="0.8" decel="4.5" length="3.0" maxSpeed="16.67" guiShape="passenger"/>
<vType id="taxi_v103" accel="0.8" decel="4.5" length="3.0" maxSpeed="16.67" guiShape="passenger"/>
<vType id="taxi_v104" accel="0.8" decel="4.5" length="3.0" maxSpeed="16.67" guiShape="passenger"/>
<vType id="taxi_v105" accel="0.8" decel="4.5" length="3.0" maxSpeed="16.67" guiShape="passenger"/>
<vType id="taxi_v106" accel="0.8" decel="4.5" length="3.0" maxSpeed="16.67" guiShape="passenger"/>
<vType id="taxi_v107" accel="0.8" decel="4.5" length="3.0" maxSpeed="16.67" guiShape="passenger"/>
<vType id="taxi_v108" accel="0.8" decel="4.5" length="3.0" maxSpeed="16.67" guiShape="passenger"/>
<vType id="taxi_v109" accel="0.8" decel="4.5" length="3.0" maxSpeed="16.67" guiShape="passenger"/>
<vType id="taxi_v110" accel="0.8" decel="4.5" length="3.0" maxSpeed="16.67" guiShape="passenger"/>
<vType id="taxi_v111" accel="0.8" decel="4.5" length="3.0" maxSpeed="16.67" guiShape="passenger"/>
<vType id="taxi_v112" accel="0.8" decel="4.5" length="3.0" maxSpeed="16.67" guiShape="passenger"/>
<vType id="taxi_v113" accel="0.8" decel="4.5" length="3.0" maxSpeed="16.67" guiShape="passenger"/>
<vType id="taxi_v114" accel="0.8" decel="4.5" length="3.0" maxSpeed="16.67" guiShape="passenger"/>
<vType id="taxi_v115" accel="0.8" decel="4.5" length="3.0" maxSpeed="16.67" guiShape="passenger"/>
<vType id="taxi_v116" accel="0.8" decel="4.5" length="3.0" maxSpeed="16.67" guiShape="passenger"/>
<vType id="taxi_v117" accel="0.8" decel="4.5" length="3.0" maxSpeed="16.67" guiShape="passenger"/>
<vType id="taxi_v118" accel="0.8" decel="4.5" length="3.0" maxSpeed="16.67" guiShape="passenger"/>
<vType id="taxi_v119" accel="0.8" decel="4.5" length="3.0" maxSpeed="16.67" guiShape="passenger"/>
<vType id="taxi_v120" accel="0.8" decel="4.5" length="3.0" maxSpeed="16.67" guiShape="passenger"/>
<vType id="taxi_v121" accel="0.8" decel="4.5" length="3.0" maxSpeed="16.67" guiShape="passenger"/>
<vType id="taxi_v122" accel="0.8" decel="4.5" length="3.0" maxSpeed="16.67" guiShape="passenger"/>
<vType id="taxi_v123" accel="0.8" decel="4.5" length="3.0" maxSpeed="16.67" guiShape="passenger"/>
<vType id="taxi_v124" accel="0.8" decel="4.5" length="3.0" maxSpeed="16.67" guiShape="passenger"/>
<vType id="taxi_v125" accel="0.8" decel="4.5" length="3.0" maxSpeed="16.67" guiShape="passenger"/>
<vType id="taxi_v126" accel="0.8" decel="4.5" length="3.0" maxSpeed="16.67" guiShape="passenger"/>
<vType id="taxi_v127" accel="0.8" decel="4.5" length="3.0" maxSpeed="16.67" guiShape="passenger"/>
<vType id="taxi_v128" accel="0.8" decel="4.5" length="3.0" maxSpeed="16.67" guiShape="passenger"/>
<vType id="taxi_v129" accel="0.8" decel="4.5" length="3.0" maxSpeed="16.67" guiShape="passenger"/>
<vType id="taxi_v130" accel="0.8" decel="4.5" length="3.0" maxSpeed="16.67" guiShape="passenger"/>
<vType id="taxi_v131" accel="0.8" decel="4.5" length="3.0" maxSpeed="16.67" guiShape="passenger"/>
<vType id="taxi_v132" accel="0.8" decel="4.5" length="3.0" maxSpeed="16.67" guiShape="passenger"/>
<vType id="taxi_v133" accel="0.8" decel="4.5" length="3.0" maxSpeed="16.67" guiShape="passenger"/>
<vType id="taxi_v134" accel="0.8" decel="4.5" length="3.0" maxSpeed="16.67" guiShape="passenger"/>
<vType id="taxi_v135" accel="0.8" decel="4.5" length="3.0" maxSpeed="16.67" guiShape="passenger"/>
<vType id="taxi_v136" accel="0.8" decel="4.5" length="3.0" maxSpeed="16.67" guiShape="passenger"/>
<vType id="taxi_v137" accel="0.8" decel="4.5" length="3.0" maxSpeed="16.67" guiShape="passenger"/>
<vType id="taxi_v138" accel="0.8" decel="4.5" length="3.0" maxSpeed="16.67" guiShape="passenger"/>
<vType id="taxi_v139" accel="0.8" decel="4.5" length="3.0" maxSpeed="16.67" guiShape="passenger"/>
<vType id="taxi_v140" accel="0.8" decel="4.5" length="3.0" maxSpeed="16.67" guiShape="passenger"/>
<vType id="taxi_v141" accel="0.8" decel="4.5" length="3.0" maxSpeed="16.67" guiShape="passenger"/>
<vType id="taxi_v142" accel="0.8" decel="4.5" length="3.0" maxSpeed="16.67" guiShape="passenger"/>
<vType id="taxi_v143" accel="0.8" decel="4.5" length="3.0" maxSpeed="16.67" guiShape="passenger"/>
<vType id="taxi_v144" accel="0.8" decel="4.5" length="3.0" maxSpeed="16.67" guiShape="passenger"/>
<vType id="taxi_v145" accel="0.8" decel="4.5" length="3.0" maxSpeed="16.67" guiShape="passenger"/>
<vType id="taxi_v146" accel="0.8" decel="4.5" length="3.0" maxSpeed="16.67" guiShape="passenger"/>
<vType id="taxi_v147" accel="0.8" decel="4.5" length="3.0" maxSpeed="16.67" guiShape="passenger"/>
<vType id="taxi_v148" accel="0.8" decel="4.5" length="3.0" maxSpeed="16.67" guiShape="passenger"/>
<vType id="taxi_v149" accel="0.8" decel="4.5" length="3.0" maxSpeed="16.67" guiShape="passenger"/>
<vType id="taxi_v150" accel="0.8" decel="4.5" length="3.0" maxSpeed="16.67" guiShape="passenger"/>
<vType id="taxi_v151" accel="0.8" decel="4.5" length="3.0" maxSpeed="16.67" guiShape="passenger"/>
<vType id="taxi_v152" accel="0.8" decel="4.5" length="3.0" maxSpeed="16.67" guiShape="passenger"/>
<vType id="taxi_v153" accel="0.8" decel="4.5" length="3.0" maxSpeed="16.67" guiShape="passenger"/>
<vType id="taxi_v154" accel="0.8" decel="4.5" length="3.0" maxSpeed="16.67" guiShape="passenger"/>
<vType id="taxi_v155" accel="0.8" decel="4.5" length="3.0" maxSpeed="16.67" guiShape="passenger"/>
<vType id="taxi_v156" accel="0.8" decel="4.5" length="3.0" maxSpeed="16.67" guiShape="passenger"/>
<vType id="taxi_v157" accel="0.8" decel="4.5" length="3.0" maxSpeed="16.67" guiShape="passenger"/>
<vType id="taxi_v158" accel="0.8" decel="4.5" length="3.0" maxSpeed="16.67" guiShape="passenger"/>
<vType id="taxi_v159" accel="0.8" decel="4.5" length="3.0" maxSpeed="16.67" guiShape="passenger"/>
<vType id="taxi_v160" accel="0.8" decel="4.5" length="3.0" maxSpeed="16.67" guiShape="passenger"/>
<vType id="taxi_v161" accel="0.8" decel="4.5" length="3.0" maxSpeed="16.67" guiShape="passenger"/>
<vType id="taxi_v162" accel="0.8" decel="4.5" length="3.0" maxSpeed="16.67" guiShape="passenger"/>
<vType id="taxi_v163" accel="0.8" decel="4.5" length="3.0" maxSpeed="16.67" guiShape="passenger"/>
<vType id="taxi_v164" accel="0.8" decel="4.5" length="3.0" maxSpeed="16.67" guiShape="passenger"/>
<vType id="taxi_v165" accel="0.8" decel="4.5" length="3.0" maxSpeed="16.67" guiShape="passenger"/>
<vType id="taxi_v166" accel="0.8" decel="4.5" length="3.0" maxSpeed="16.67" guiShape="passenger"/>
<vType id="taxi_v167" accel="0.8" decel="4.5" length="3.0" maxSpeed="16.67" guiShape="passenger"/>
<vType id="taxi_v168" accel="0.8" decel="4.5" length="3.0" maxSpeed="16.67" guiShape="passenger"/>
<vType id="taxi_v169" accel="0.8" decel="4.5" length="3.0" maxSpeed="16.67" guiShape="passenger"/>
<vType id="taxi_v170" accel="0.8" decel="4.5" length="3.0" maxSpeed="16.67" guiShape="passenger"/>
<vType id="taxi_v171" accel="0.8" decel="4.5" length="3.0" maxSpeed="16.67" guiShape="passenger"/>
<vType id="taxi_v172" accel="0.8" decel="4.5" length="3.0" maxSpeed="16.67" guiShape="passenger"/>
<vType id="taxi_v173" accel="0.8" decel="4.5" length="3.0" maxSpeed="16.67" guiShape="passenger"/>
<vType id="taxi_v174" accel="0.8" decel="4.5" length="3.0" maxSpeed="16.67" guiShape="passenger"/>
<vType id="taxi_v175" accel="0.8" decel="4.5" length="3.0" maxSpeed="16.67" guiShape="passenger"/>
<vType id="taxi_v176" accel="0.8" decel="4.5" length="3.0" maxSpeed="16.67" guiShape="passenger"/>
<vType id="taxi_v177" accel="0.8" decel="4.5" length="3.0" maxSpeed="16.67" guiShape="passenger"/>
<vType id="taxi_v178" accel="0.8" decel="4.5" length="3.0" maxSpeed="16.67" guiShape="passenger"/>
<vType id="taxi_v179" accel="0.8" decel="4.5" length="3.0" maxSpeed="16.67" guiShape="passenger"/>
<vType id="taxi_v180" accel="0.8" decel="4.5" length="3.0" maxSpeed="16.67" guiShape="passenger"/>
<vType id="taxi_v181" accel="0.8" decel="4.5" length="3.0" maxSpeed="16.67" guiShape="passenger"/>
<vType id="taxi_v182" accel="0.8" decel="4.5" length="3.0" maxSpeed="16.67" guiShape="passenger"/>
<vType id="taxi_v183" accel="0.8" decel="4.5" length="3.0" maxSpeed="16.67" guiShape="passenger"/>
<vType id="taxi_v184" accel="0.8" decel="4.5" length="3.0" maxSpeed="16.67" guiShape="passenger"/>
<vType id="taxi_v185" accel="0.8" decel="4.5" length="3.0" maxSpeed="16.67" guiShape="passenger"/>
<vType id="taxi_v186" accel="0.8" decel="4.5" length="3.0" maxSpeed="16.67" guiShape="passenger"/>
<vType id="taxi_v187" accel="0.8" decel="4.5" length="3.0" maxSpeed="16.67" guiShape="passenger"/>
<vType id="taxi_v188" accel="0.8" decel="4.5" length="3.0" maxSpeed="16.67" guiShape="passenger"/>
<vType id="taxi_v189" accel="0.8" decel="4.5" length="3.0" maxSpeed="16.67" guiShape="passenger"/>
<vType id="taxi_v190" accel="0.8" decel="4.5" length="3.0" maxSpeed="16.67" guiShape="passenger"/>
<vType id="taxi_v191" accel="0.8" decel="4.5" length="3.0" maxSpeed="16.67" guiShape="passenger"/>
<vType id="taxi_v192" accel="0.8" decel="4.5" length="3.0" maxSpeed="16.67" guiShape="passenger"/>
<vType id="taxi_v193" accel="0.8" decel="4.5" length="3.0" maxSpeed="16.67" guiShape="passenger"/>
<vType id="taxi_v194" accel="0.8" decel="4.5" length="3.0" maxSpeed="16.67" guiShape="passenger"/>
<vType id="taxi_v195" accel="0.8" decel="4.5" length="3.0" maxSpeed="16.67" guiShape="passenger"/>
<vType id="taxi_v196" accel="0.8" decel="4.5" length="3.0" maxSpeed="16.67" guiShape="passenger"/>
<vType id="taxi_v197" accel="0.8" decel="4.5" length="3.0" maxSpeed="16.67" guiShape="passenger"/>
<vType id="taxi_v198" accel="0.8" decel="4.5" length="3.0" maxSpeed="16.67" guiShape="passenger"/>
<vType id="taxi_v199" accel="0.8" decel="4.5" length="3.0" maxSpeed="16.67" guiShape="passenger"/>
<vType id="taxi_v200" accel="0.8" decel="4.5" length="3.0" maxSpeed="16.67" guiShape="passenger"/>
<vType id="taxi_v201" accel="0.8" decel="4.5" length="3.0" maxSpeed="16.67" guiShape="passenger"/>
<vType id="taxi_v202" accel="0.8" decel="4.5" length="3.0" maxSpeed="16.67" guiShape="passenger"/>
<vType id="taxi_v203" accel="0.8" decel="4.5" length="3.0" maxSpeed="16.67" guiShape="passenger"/>
<vType id="taxi_v204" accel="0.8" decel="4.5" length="3.0" maxSpeed="16.67" guiShape="passenger"/>
<vType id="taxi_v205" accel="0.8" decel="4.5" length="3.0" maxSpeed="16.67" guiShape="passenger"/>
<vType id="taxi_v206" accel="0.8" decel="4.5" length="3.0" maxSpeed="16.67" guiShape="passenger"/>
<vType id="taxi_v207" accel="0.8" decel="4.5" length="3.0" maxSpeed="16.67" guiShape="passenger"/>
<vType id="taxi_v208" accel="0.8" decel="4.5" length="3.0" maxSpeed="16.67" guiShape="passenger"/>
<vType id="taxi_v209" accel="0.8" decel="4.5" length="3.0" maxSpeed="16.67" guiShape="passenger"/>
<vType id="taxi_v210" accel="0.8" decel="4.5" length="3.0" maxSpeed="16.67" guiShape="passenger"/>
<vType id="taxi_v211" accel="0.8" decel="4.5" length="3.0" maxSpeed="16.67" guiShape="passenger"/>
<vType id="taxi_v212" accel="0.8" decel="4.5" length="3.0" maxSpeed="16.67" guiShape="passenger"/>
<vType id="taxi_v213" accel="0.8" decel="4.5" length="3.0" maxSpeed="16.67" guiShape="passenger"/>
<vType id="taxi_v214" accel="0.8" decel="4.5" length="3.0" maxSpeed="16.67" guiShape="passenger"/>
<vType id="taxi_v215" accel="0.8" decel="4.5" length="3.0" maxSpeed="16.67" guiShape="passenger"/>
<vType id="taxi_v216" accel="0.8" decel="4.5" length="3.0" maxSpeed="16.67" guiShape="passenger"/>
<vType id="taxi_v217" accel="0.8" decel="4.5" length="3.0" maxSpeed="16.67" guiShape="passenger"/>
<vType id="taxi_v218" accel="0.8" decel="4.5" length="3.0" maxSpeed="16.67" guiShape="passenger"/>
<vType id="taxi_v219" accel="0.8" decel="4.5" length="3.0" maxSpeed="16.67" guiShape="passenger"/>
<vType id="taxi_v220" accel="0.8" decel="4.5" length="3.0" maxSpeed="16.67" guiShape="passenger"/>
<vType id="taxi_v221" accel="0.8" decel="4.5" length="3.0" maxSpeed="16.67" guiShape="passenger"/>
<vType id="taxi_v222" accel="0.8" decel="4.5" length="3.0" maxSpeed="16.67" guiShape="passenger"/>
<vType id="taxi_v223" accel="0.8" decel="4.5" length="3.0" maxSpeed="16.67" guiShape="passenger"/>
<vType id="taxi_v224" accel="0.8" decel="4.5" length="3.0" maxSpeed="16.67" guiShape="passenger"/>
<vType id="taxi_v225" accel="0.8" decel="4.5" length="3.0" maxSpeed="16.67" guiShape="passenger"/>
<vType id="taxi_v226" accel="0.8" decel="4.5" length="3.0" maxSpeed="16.67" guiShape="passenger"/>
<vType id="taxi_v227" accel="0.8" decel="4.5" length="3.0" maxSpeed="16.67" guiShape="passenger"/>
<vType id="taxi_v228" accel="0.8" decel="4.5" length="3.0" maxSpeed="16.67" guiShape="passenger"/>
<vType id="taxi_v229" accel="0.8" decel="4.5" length="3.0" maxSpeed="16.67" guiShape="passenger"/>
<vType id="taxi_v230" accel="0.8" decel="4.5" length="3.0" maxSpeed="16.67" guiShape="passenger"/>
<vType id="taxi_v231" accel="0.8" decel="4.5" length="3.0" maxSpeed="16.67" guiShape="passenger"/>
<vType id="taxi_v232" accel="0.8" decel="4.5" length="3.0" maxSpeed="16.67" guiShape="passenger"/>
<vType id="taxi_v233" accel="0.8" decel="4.5" length="3.0" maxSpeed="16.67" guiShape="passenger"/>
<vType id="taxi_v234" accel="0.8" decel="4.5" length="3.0" maxSpeed="16.67" guiShape="passenger"/>
<vType id="taxi_v235" accel="0.8" decel="4.5" length="3.0" maxSpeed="16.67" guiShape="passenger"/>
<vType id="taxi_v236" accel="0.8" decel="4.5" length="3.0" maxSpeed="16.67" guiShape="passenger"/>
<vType id="taxi_v237" accel="0.8" decel="4.5" length="3.0" maxSpeed="16.67" guiShape="passenger"/>
<vType id="taxi_v238" accel="0.8" decel="4.5" length="3.0" maxSpeed="16.67" guiShape="passenger"/>
<vType id="taxi_v239" accel="0.8" decel="4.5" length="3.0" maxSpeed="16.67" guiShape="passenger"/>
<vType id="taxi_v240" accel="0.8" decel="4.5" length="3.0" maxSpeed="16.67" guiShape="passenger"/>
<vType id="taxi_v241" accel="0.8" decel="4.5" length="3.0" maxSpeed="16.67" guiShape="passenger"/>
<vType id="taxi_v242" accel="0.8" decel="4.5" length="3.0" maxSpeed="16.67" guiShape="passenger"/>
<vType id="taxi_v243" accel="0.8" decel="4.5" length="3.0" maxSpeed="16.67" guiShape="passenger"/>
<vType id="taxi_v244" accel="0.8" decel="4.5" length="3.0" maxSpeed="16.67" guiShape="passenger"/>
<vType id="taxi_v245" accel="0.8" decel="4.5" length="3.0" maxSpeed="16.67" guiShape="passenger"/>
<vType id="taxi_v246" accel="0.8" decel="4.5" length="3.0" maxSpeed="16.67" guiShape="passenger"/>
<vType id="taxi_v247" accel="0.8" decel="4.5" length="3.0" maxSpeed="16.67" guiShape="passenger"/>
<vType id="taxi_v248" accel="0.8" decel="4.5" length="3.0" maxSpeed="16.67" guiShape="passenger"/>
<vType id="taxi_v249" accel="0.8" decel="4.5" length="3.0" maxSpeed="16.67" guiShape="passenger"/>
</vehicleTypes>
</edge>
</net>