<?xml version="1.0" encoding="UTF-8"?>

<!-- generated on 2023-04-20 07:43:37 by Eclipse SUMO netedit Version 1.16.0
-->

<routes xmlns:xsi="http://www.w3.org/2001/XMLSchema-instance" xsi:noNamespaceSchemaLocation="http://sumo.dlr.de/xsd/routes_file.xsd">
    <!-- Routes -->
    <route id="r_0" edges="E0"/>
    <!-- Vehicles, persons and containers (sorted by depart) -->
    <vehicle id="v_1" type="emv" depart="200.00" departLane="0" departSpeed="max" color="red" route="r_0"/>
</routes>