<net xmlns:xsi="http://www.w3.org/2001/XMLSchema-instance" version="1.16" junctionCornerDetail="5" limitTurnSpeed="5.50" xsi:noNamespaceSchemaLocation="http://sumo.dlr.de/xsd/net_file.xsd">
    <location netOffset="0.00,0.00" convBoundary="0.00,0.00,2000.0,0.00" origBoundary="-10000000000.00,-10000000000.00,10000000000.00,10000000000.00" projParameter="!"/>
    <edge id="E0" from="J0" to="J1" priority="-1">
    <lane id="E0_0" index="0" speed="16.667" length="2000.0" shape="0.00,-3.2 2000.0,-3.2"/>
<lane id="E0_1" index="1" speed="16.667" length="2000.0" shape="0.00,0.0 2000.0,0.0"/>
<lane id="E0_2" index="2" speed="16.667" length="2000.0" shape="0.00,3.2 2000.0,3.2"/>
<lane id="E0_3" index="3" speed="16.667" length="2000.0" shape="0.00,6.4 2000.0,6.4"/>
<junction id="J0" type="dead_end" x="0.00" y="0.00" incLanes="" intLanes="" shape="0.00,0.00 0.00,12.8"/>
<junction id="J1" type="dead_end" x="2000.0" y="0.00" incLanes="E0_0 E0_1 E0_2 E0_3" intLanes="" shape="2000.0,12.8 2000.0,0.00"/>
<vehicleTypes>
<vType id="taxi" accel="0.8" decel="4.5" sigma="0.5" length="3.0" maxSpeed="25.0" guiShape="passenger"/>
<vType id="emv" vClass="emergency"/>
<vType id="taxi_v0" accel="0.8" decel="4.5" length="3.0" maxSpeed="7.048574862030535" guiShape="passenger"/>
<vType id="taxi_v1" accel="0.8" decel="4.5" length="3.0" maxSpeed="14.971775224604368" guiShape="passenger"/>
<vType id="taxi_v2" accel="0.8" decel="4.5" length="3.0" maxSpeed="14.04220530129675" guiShape="passenger"/>
<vType id="taxi_v3" accel="0.8" decel="4.5" length="3.0" maxSpeed="8.389773972601011" guiShape="passenger"/>
<vType id="taxi_v4" accel="0.8" decel="4.5" length="3.0" maxSpeed="11.060577426713394" guiShape="passenger"/>
<vType id="taxi_v5" accel="0.8" decel="4.5" length="3.0" maxSpeed="10.550075017293587" guiShape="passenger"/>
<vType id="taxi_v6" accel="0.8" decel="4.5" length="3.0" maxSpeed="12.79571015711171" guiShape="passenger"/>
<vType id="taxi_v7" accel="0.8" decel="4.5" length="3.0" maxSpeed="14.319420643807142" guiShape="passenger"/>
<vType id="taxi_v8" accel="0.8" decel="4.5" length="3.0" maxSpeed="6.598511412483234" guiShape="passenger"/>
<vType id="taxi_v9" accel="0.8" decel="4.5" length="3.0" maxSpeed="5.870580150626621" guiShape="passenger"/>
<vType id="taxi_v10" accel="0.8" decel="4.5" length="3.0" maxSpeed="14.842120375695242" guiShape="passenger"/>
<vType id="taxi_v11" accel="0.8" decel="4.5" length="3.0" maxSpeed="10.364247998320211" guiShape="passenger"/>
<vType id="taxi_v12" accel="0.8" decel="4.5" length="3.0" maxSpeed="14.025598908223177" guiShape="passenger"/>
<vType id="taxi_v13" accel="0.8" decel="4.5" length="3.0" maxSpeed="5.579001201205531" guiShape="passenger"/>
<vType id="taxi_v14" accel="0.8" decel="4.5" length="3.0" maxSpeed="10.50447526802052" guiShape="passenger"/>
<vType id="taxi_v15" accel="0.8" decel="4.5" length="3.0" maxSpeed="13.572919915351372" guiShape="passenger"/>
<vType id="taxi_v16" accel="0.8" decel="4.5" length="3.0" maxSpeed="8.097468545424508" guiShape="passenger"/>
<vType id="taxi_v17" accel="0.8" decel="4.5" length="3.0" maxSpeed="16.058880806577854" guiShape="passenger"/>
<vType id="taxi_v18" accel="0.8" decel="4.5" length="3.0" maxSpeed="15.57172105250424" guiShape="passenger"/>
<vType id="taxi_v19" accel="0.8" decel="4.5" length="3.0" maxSpeed="5.895497537479027" guiShape="passenger"/>
<vType id="taxi_v20" accel="0.8" decel="4.5" length="3.0" maxSpeed="5.83833913984274" guiShape="passenger"/>
<vType id="taxi_v21" accel="0.8" decel="4.5" length="3.0" maxSpeed="11.571450550197659" guiShape="passenger"/>
<vType id="taxi_v22" accel="0.8" decel="4.5" length="3.0" maxSpeed="15.990862007297144" guiShape="passenger"/>
<vType id="taxi_v23" accel="0.8" decel="4.5" length="3.0" maxSpeed="9.791312766648804" guiShape="passenger"/>
<vType id="taxi_v24" accel="0.8" decel="4.5" length="3.0" maxSpeed="7.962322541277098" guiShape="passenger"/>
<vType id="taxi_v25" accel="0.8" decel="4.5" length="3.0" maxSpeed="10.245906117929806" guiShape="passenger"/>
<vType id="taxi_v26" accel="0.8" decel="4.5" length="3.0" maxSpeed="5.878283807059388" guiShape="passenger"/>
<vType id="taxi_v27" accel="0.8" decel="4.5" length="3.0" maxSpeed="8.018904780626201" guiShape="passenger"/>
<vType id="taxi_v28" accel="0.8" decel="4.5" length="3.0" maxSpeed="10.421144208088968" guiShape="passenger"/>
<vType id="taxi_v29" accel="0.8" decel="4.5" length="3.0" maxSpeed="11.064768138890297" guiShape="passenger"/>
<vType id="taxi_v30" accel="0.8" decel="4.5" length="3.0" maxSpeed="8.145494560591994" guiShape="passenger"/>
<vType id="taxi_v31" accel="0.8" decel="4.5" length="3.0" maxSpeed="8.120850489678492" guiShape="passenger"/>
<vType id="taxi_v32" accel="0.8" decel="4.5" length="3.0" maxSpeed="7.986563618273994" guiShape="passenger"/>
<vType id="taxi_v33" accel="0.8" decel="4.5" length="3.0" maxSpeed="10.662437949198253" guiShape="passenger"/>
<vType id="taxi_v34" accel="0.8" decel="4.5" length="3.0" maxSpeed="8.775479432360722" guiShape="passenger"/>
<vType id="taxi_v35" accel="0.8" decel="4.5" length="3.0" maxSpeed="5.79438071109162" guiShape="passenger"/>
<vType id="taxi_v36" accel="0.8" decel="4.5" length="3.0" maxSpeed="14.862263918777114" guiShape="passenger"/>
<vType id="taxi_v37" accel="0.8" decel="4.5" length="3.0" maxSpeed="11.73858656072025" guiShape="passenger"/>
<vType id="taxi_v38" accel="0.8" decel="4.5" length="3.0" maxSpeed="12.692389584287577" guiShape="passenger"/>
<vType id="taxi_v39" accel="0.8" decel="4.5" length="3.0" maxSpeed="7.621278882862567" guiShape="passenger"/>
<vType id="taxi_v40" accel="0.8" decel="4.5" length="3.0" maxSpeed="16.584146870053132" guiShape="passenger"/>
<vType id="taxi_v41" accel="0.8" decel="4.5" length="3.0" maxSpeed="15.110809860055985" guiShape="passenger"/>
<vType id="taxi_v42" accel="0.8" decel="4.5" length="3.0" maxSpeed="6.898856699386238" guiShape="passenger"/>
<vType id="taxi_v43" accel="0.8" decel="4.5" length="3.0" maxSpeed="9.25230928261054" guiShape="passenger"/>
<vType id="taxi_v44" accel="0.8" decel="4.5" length="3.0" maxSpeed="13.572301846420729" guiShape="passenger"/>
<vType id="taxi_v45" accel="0.8" decel="4.5" length="3.0" maxSpeed="13.457936229792132" guiShape="passenger"/>
<vType id="taxi_v46" accel="0.8" decel="4.5" length="3.0" maxSpeed="15.960765936163517" guiShape="passenger"/>
<vType id="taxi_v47" accel="0.8" decel="4.5" length="3.0" maxSpeed="10.24579971937127" guiShape="passenger"/>
<vType id="taxi_v48" accel="0.8" decel="4.5" length="3.0" maxSpeed="14.778458602248358" guiShape="passenger"/>
<vType id="taxi_v49" accel="0.8" decel="4.5" length="3.0" maxSpeed="13.00363327065331" guiShape="passenger"/>
<vType id="taxi_v50" accel="0.8" decel="4.5" length="3.0" maxSpeed="8.926448872380021" guiShape="passenger"/>
<vType id="taxi_v51" accel="0.8" decel="4.5" length="3.0" maxSpeed="12.084443147103547" guiShape="passenger"/>
<vType id="taxi_v52" accel="0.8" decel="4.5" length="3.0" maxSpeed="15.361177169843105" guiShape="passenger"/>
<vType id="taxi_v53" accel="0.8" decel="4.5" length="3.0" maxSpeed="14.958037995124355" guiShape="passenger"/>
<vType id="taxi_v54" accel="0.8" decel="4.5" length="3.0" maxSpeed="11.170010643988173" guiShape="passenger"/>
<vType id="taxi_v55" accel="0.8" decel="4.5" length="3.0" maxSpeed="12.100239689347326" guiShape="passenger"/>
<vType id="taxi_v56" accel="0.8" decel="4.5" length="3.0" maxSpeed="5.939230309143617" guiShape="passenger"/>
<vType id="taxi_v57" accel="0.8" decel="4.5" length="3.0" maxSpeed="8.252780942026442" guiShape="passenger"/>
<vType id="taxi_v58" accel="0.8" decel="4.5" length="3.0" maxSpeed="14.415877556274882" guiShape="passenger"/>
<vType id="taxi_v59" accel="0.8" decel="4.5" length="3.0" maxSpeed="10.159208571830625" guiShape="passenger"/>
<vType id="taxi_v60" accel="0.8" decel="4.5" length="3.0" maxSpeed="7.477954441905467" guiShape="passenger"/>
<vType id="taxi_v61" accel="0.8" decel="4.5" length="3.0" maxSpeed="11.653522557288323" guiShape="passenger"/>
<vType id="taxi_v62" accel="0.8" decel="4.5" length="3.0" maxSpeed="13.36736712361606" guiShape="passenger"/>
<vType id="taxi_v63" accel="0.8" decel="4.5" length="3.0" maxSpeed="13.05008185704356" guiShape="passenger"/>
<vType id="taxi_v64" accel="0.8" decel="4.5" length="3.0" maxSpeed="9.719075142001927" guiShape="passenger"/>
<vType id="taxi_v65" accel="0.8" decel="4.5" length="3.0" maxSpeed="10.43307825607716" guiShape="passenger"/>
<vType id="taxi_v66" accel="0.8" decel="4.5" length="3.0" maxSpeed="11.204930081540848" guiShape="passenger"/>
<vType id="taxi_v67" accel="0.8" decel="4.5" length="3.0" maxSpeed="14.205187272312621" guiShape="passenger"/>
<vType id="taxi_v68" accel="0.8" decel="4.5" length="3.0" maxSpeed="11.343955133466702" guiShape="passenger"/>
<vType id="taxi_v69" accel="0.8" decel="4.5" length="3.0" maxSpeed="9.925214662185503" guiShape="passenger"/>
<vType id="taxi_v70" accel="0.8" decel="4.5" length="3.0" maxSpeed="10.996780583264336" guiShape="passenger"/>
<vType id="taxi_v71" accel="0.8" decel="4.5" length="3.0" maxSpeed="5.884219254621891" guiShape="passenger"/>
<vType id="taxi_v72" accel="0.8" decel="4.5" length="3.0" maxSpeed="6.038804678067519" guiShape="passenger"/>
<vType id="taxi_v73" accel="0.8" decel="4.5" length="3.0" maxSpeed="13.371159739312665" guiShape="passenger"/>
<vType id="taxi_v74" accel="0.8" decel="4.5" length="3.0" maxSpeed="16.480192002114713" guiShape="passenger"/>
<vType id="taxi_v75" accel="0.8" decel="4.5" length="3.0" maxSpeed="12.146701701744973" guiShape="passenger"/>
<vType id="taxi_v76" accel="0.8" decel="4.5" length="3.0" maxSpeed="9.929043555219554" guiShape="passenger"/>
<vType id="taxi_v77" accel="0.8" decel="4.5" length="3.0" maxSpeed="7.448418065942217" guiShape="passenger"/>
<vType id="taxi_v78" accel="0.8" decel="4.5" length="3.0" maxSpeed="11.136173518177806" guiShape="passenger"/>
<vType id="taxi_v79" accel="0.8" decel="4.5" length="3.0" maxSpeed="16.46784635034567" guiShape="passenger"/>
<vType id="taxi_v80" accel="0.8" decel="4.5" length="3.0" maxSpeed="14.117190815915958" guiShape="passenger"/>
<vType id="taxi_v81" accel="0.8" decel="4.5" length="3.0" maxSpeed="11.551505316704873" guiShape="passenger"/>
<vType id="taxi_v82" accel="0.8" decel="4.5" length="3.0" maxSpeed="15.114623849497796" guiShape="passenger"/>
<vType id="taxi_v83" accel="0.8" decel="4.5" length="3.0" maxSpeed="8.135401829359381" guiShape="passenger"/>
<vType id="taxi_v84" accel="0.8" decel="4.5" length="3.0" maxSpeed="11.264322458343111" guiShape="passenger"/>
<vType id="taxi_v85" accel="0.8" decel="4.5" length="3.0" maxSpeed="16.13884613800405" guiShape="passenger"/>
<vType id="taxi_v86" accel="0.8" decel="4.5" length="3.0" maxSpeed="11.97570922740229" guiShape="passenger"/>
<vType id="taxi_v87" accel="0.8" decel="4.5" length="3.0" maxSpeed="10.657196325952201" guiShape="passenger"/>
<vType id="taxi_v88" accel="0.8" decel="4.5" length="3.0" maxSpeed="8.547671985642609" guiShape="passenger"/>
<vType id="taxi_v89" accel="0.8" decel="4.5" length="3.0" maxSpeed="11.644606193003279" guiShape="passenger"/>
<vType id="taxi_v90" accel="0.8" decel="4.5" length="3.0" maxSpeed="16.190501849817167" guiShape="passenger"/>
<vType id="taxi_v91" accel="0.8" decel="4.5" length="3.0" maxSpeed="5.619036420975096" guiShape="passenger"/>
<vType id="taxi_v92" accel="0.8" decel="4.5" length="3.0" maxSpeed="14.263106751682644" guiShape="passenger"/>
<vType id="taxi_v93" accel="0.8" decel="4.5" length="3.0" maxSpeed="14.672347161768801" guiShape="passenger"/>
<vType id="taxi_v94" accel="0.8" decel="4.5" length="3.0" maxSpeed="15.40229579439011" guiShape="passenger"/>
<vType id="taxi_v95" accel="0.8" decel="4.5" length="3.0" maxSpeed="13.783629610243379" guiShape="passenger"/>
<vType id="taxi_v96" accel="0.8" decel="4.5" length="3.0" maxSpeed="14.54627709455447" guiShape="passenger"/>
<vType id="taxi_v97" accel="0.8" decel="4.5" length="3.0" maxSpeed="11.318841879537485" guiShape="passenger"/>
<vType id="taxi_v98" accel="0.8" decel="4.5" length="3.0" maxSpeed="11.793071778698481" guiShape="passenger"/>
<vType id="taxi_v99" accel="0.8" decel="4.5" length="3.0" maxSpeed="10.290063978286913" guiShape="passenger"/>
<vType id="taxi_v100" accel="0.8" decel="4.5" length="3.0" maxSpeed="6.179208408071955" guiShape="passenger"/>
<vType id="taxi_v101" accel="0.8" decel="4.5" length="3.0" maxSpeed="15.222630838229717" guiShape="passenger"/>
<vType id="taxi_v102" accel="0.8" decel="4.5" length="3.0" maxSpeed="11.889090598434013" guiShape="passenger"/>
<vType id="taxi_v103" accel="0.8" decel="4.5" length="3.0" maxSpeed="7.776095733356308" guiShape="passenger"/>
<vType id="taxi_v104" accel="0.8" decel="4.5" length="3.0" maxSpeed="11.163751001789073" guiShape="passenger"/>
<vType id="taxi_v105" accel="0.8" decel="4.5" length="3.0" maxSpeed="10.943796892007246" guiShape="passenger"/>
<vType id="taxi_v106" accel="0.8" decel="4.5" length="3.0" maxSpeed="9.520036012044821" guiShape="passenger"/>
<vType id="taxi_v107" accel="0.8" decel="4.5" length="3.0" maxSpeed="9.401010189378326" guiShape="passenger"/>
<vType id="taxi_v108" accel="0.8" decel="4.5" length="3.0" maxSpeed="11.538853290961484" guiShape="passenger"/>
<vType id="taxi_v109" accel="0.8" decel="4.5" length="3.0" maxSpeed="12.4834407058142" guiShape="passenger"/>
<vType id="taxi_v110" accel="0.8" decel="4.5" length="3.0" maxSpeed="12.36080431718678" guiShape="passenger"/>
<vType id="taxi_v111" accel="0.8" decel="4.5" length="3.0" maxSpeed="10.646252354628079" guiShape="passenger"/>
<vType id="taxi_v112" accel="0.8" decel="4.5" length="3.0" maxSpeed="5.866441238149206" guiShape="passenger"/>
<vType id="taxi_v113" accel="0.8" decel="4.5" length="3.0" maxSpeed="8.106833344531523" guiShape="passenger"/>
<vType id="taxi_v114" accel="0.8" decel="4.5" length="3.0" maxSpeed="7.524665182570168" guiShape="passenger"/>
<vType id="taxi_v115" accel="0.8" decel="4.5" length="3.0" maxSpeed="12.049778519567575" guiShape="passenger"/>
<vType id="taxi_v116" accel="0.8" decel="4.5" length="3.0" maxSpeed="15.122613856485636" guiShape="passenger"/>
<vType id="taxi_v117" accel="0.8" decel="4.5" length="3.0" maxSpeed="14.427374444332013" guiShape="passenger"/>
<vType id="taxi_v118" accel="0.8" decel="4.5" length="3.0" maxSpeed="14.412469857468054" guiShape="passenger"/>
<vType id="taxi_v119" accel="0.8" decel="4.5" length="3.0" maxSpeed="14.627362199248061" guiShape="passenger"/>
<vType id="taxi_v120" accel="0.8" decel="4.5" length="3.0" maxSpeed="8.392274197026092" guiShape="passenger"/>
<vType id="taxi_v121" accel="0.8" decel="4.5" length="3.0" maxSpeed="14.908563529330392" guiShape="passenger"/>
<vType id="taxi_v122" accel="0.8" decel="4.5" length="3.0" maxSpeed="13.034833626559651" guiShape="passenger"/>
<vType id="taxi_v123" accel="0.8" decel="4.5" length="3.0" maxSpeed="6.480447798794231" guiShape="passenger"/>
<vType id="taxi_v124" accel="0.8" decel="4.5" length="3.0" maxSpeed="5.741056267466029" guiShape="passenger"/>
<vType id="taxi_v125" accel="0.8" decel="4.5" length="3.0" maxSpeed="5.71738170537956" guiShape="passenger"/>
<vType id="taxi_v126" accel="0.8" decel="4.5" length="3.0" maxSpeed="13.951226894537276" guiShape="passenger"/>
<vType id="taxi_v127" accel="0.8" decel="4.5" length="3.0" maxSpeed="8.328552379925442" guiShape="passenger"/>
<vType id="taxi_v128" accel="0.8" decel="4.5" length="3.0" maxSpeed="6.772171933318545" guiShape="passenger"/>
<vType id="taxi_v129" accel="0.8" decel="4.5" length="3.0" maxSpeed="12.498025877851827" guiShape="passenger"/>
<vType id="taxi_v130" accel="0.8" decel="4.5" length="3.0" maxSpeed="9.382620212121793" guiShape="passenger"/>
<vType id="taxi_v131" accel="0.8" decel="4.5" length="3.0" maxSpeed="6.328013177007657" guiShape="passenger"/>
<vType id="taxi_v132" accel="0.8" decel="4.5" length="3.0" maxSpeed="7.329263055083217" guiShape="passenger"/>
<vType id="taxi_v133" accel="0.8" decel="4.5" length="3.0" maxSpeed="11.41553456598209" guiShape="passenger"/>
<vType id="taxi_v134" accel="0.8" decel="4.5" length="3.0" maxSpeed="7.4239257554558895" guiShape="passenger"/>
<vType id="taxi_v135" accel="0.8" decel="4.5" length="3.0" maxSpeed="8.588061473267082" guiShape="passenger"/>
<vType id="taxi_v136" accel="0.8" decel="4.5" length="3.0" maxSpeed="13.462360316926443" guiShape="passenger"/>
<vType id="taxi_v137" accel="0.8" decel="4.5" length="3.0" maxSpeed="10.60797169208939" guiShape="passenger"/>
<vType id="taxi_v138" accel="0.8" decel="4.5" length="3.0" maxSpeed="9.133490427036133" guiShape="passenger"/>
<vType id="taxi_v139" accel="0.8" decel="4.5" length="3.0" maxSpeed="10.819859246851639" guiShape="passenger"/>
<vType id="taxi_v140" accel="0.8" decel="4.5" length="3.0" maxSpeed="5.818213245900061" guiShape="passenger"/>
<vType id="taxi_v141" accel="0.8" decel="4.5" length="3.0" maxSpeed="9.850790613846597" guiShape="passenger"/>
<vType id="taxi_v142" accel="0.8" decel="4.5" length="3.0" maxSpeed="10.232595812163726" guiShape="passenger"/>
<vType id="taxi_v143" accel="0.8" decel="4.5" length="3.0" maxSpeed="7.644979930813738" guiShape="passenger"/>
<vType id="taxi_v144" accel="0.8" decel="4.5" length="3.0" maxSpeed="6.7640946694379664" guiShape="passenger"/>
<vType id="taxi_v145" accel="0.8" decel="4.5" length="3.0" maxSpeed="15.553843284855883" guiShape="passenger"/>
<vType id="taxi_v146" accel="0.8" decel="4.5" length="3.0" maxSpeed="11.223702710490896" guiShape="passenger"/>
<vType id="taxi_v147" accel="0.8" decel="4.5" length="3.0" maxSpeed="7.878893654639739" guiShape="passenger"/>
<vType id="taxi_v148" accel="0.8" decel="4.5" length="3.0" maxSpeed="12.285204298873971" guiShape="passenger"/>
<vType id="taxi_v149" accel="0.8" decel="4.5" length="3.0" maxSpeed="14.634054571214053" guiShape="passenger"/>
<vType id="taxi_v150" accel="0.8" decel="4.5" length="3.0" maxSpeed="5.786918330890096" guiShape="passenger"/>
<vType id="taxi_v151" accel="0.8" decel="4.5" length="3.0" maxSpeed="5.754099836725965" guiShape="passenger"/>
<vType id="taxi_v152" accel="0.8" decel="4.5" length="3.0" maxSpeed="7.182994982273294" guiShape="passenger"/>
<vType id="taxi_v153" accel="0.8" decel="4.5" length="3.0" maxSpeed="13.542868472045352" guiShape="passenger"/>
<vType id="taxi_v154" accel="0.8" decel="4.5" length="3.0" maxSpeed="7.3359528727457" guiShape="passenger"/>
<vType id="taxi_v155" accel="0.8" decel="4.5" length="3.0" maxSpeed="13.384754973314742" guiShape="passenger"/>
<vType id="taxi_v156" accel="0.8" decel="4.5" length="3.0" maxSpeed="13.091082531640275" guiShape="passenger"/>
<vType id="taxi_v157" accel="0.8" decel="4.5" length="3.0" maxSpeed="11.60800362039064" guiShape="passenger"/>
<vType id="taxi_v158" accel="0.8" decel="4.5" length="3.0" maxSpeed="8.006772040179168" guiShape="passenger"/>
<vType id="taxi_v159" accel="0.8" decel="4.5" length="3.0" maxSpeed="16.395820925281633" guiShape="passenger"/>
<vType id="taxi_v160" accel="0.8" decel="4.5" length="3.0" maxSpeed="14.420395564316127" guiShape="passenger"/>
<vType id="taxi_v161" accel="0.8" decel="4.5" length="3.0" maxSpeed="11.295743872631487" guiShape="passenger"/>
<vType id="taxi_v162" accel="0.8" decel="4.5" length="3.0" maxSpeed="8.035617592632857" guiShape="passenger"/>
<vType id="taxi_v163" accel="0.8" decel="4.5" length="3.0" maxSpeed="12.761414214068079" guiShape="passenger"/>
<vType id="taxi_v164" accel="0.8" decel="4.5" length="3.0" maxSpeed="9.94346974673951" guiShape="passenger"/>
<vType id="taxi_v165" accel="0.8" decel="4.5" length="3.0" maxSpeed="11.954054830923214" guiShape="passenger"/>
<vType id="taxi_v166" accel="0.8" decel="4.5" length="3.0" maxSpeed="9.125090685957424" guiShape="passenger"/>
<vType id="taxi_v167" accel="0.8" decel="4.5" length="3.0" maxSpeed="12.566314065730445" guiShape="passenger"/>
<vType id="taxi_v168" accel="0.8" decel="4.5" length="3.0" maxSpeed="6.208784940216807" guiShape="passenger"/>
<vType id="taxi_v169" accel="0.8" decel="4.5" length="3.0" maxSpeed="8.873530148641152" guiShape="passenger"/>
<vType id="taxi_v170" accel="0.8" decel="4.5" length="3.0" maxSpeed="16.310360840410592" guiShape="passenger"/>
<vType id="taxi_v171" accel="0.8" decel="4.5" length="3.0" maxSpeed="15.28401120139455" guiShape="passenger"/>
<vType id="taxi_v172" accel="0.8" decel="4.5" length="3.0" maxSpeed="8.95998429317083" guiShape="passenger"/>
<vType id="taxi_v173" accel="0.8" decel="4.5" length="3.0" maxSpeed="15.094896974790274" guiShape="passenger"/>
<vType id="taxi_v174" accel="0.8" decel="4.5" length="3.0" maxSpeed="9.004174408971615" guiShape="passenger"/>
<vType id="taxi_v175" accel="0.8" decel="4.5" length="3.0" maxSpeed="15.992409484827979" guiShape="passenger"/>
<vType id="taxi_v176" accel="0.8" decel="4.5" length="3.0" maxSpeed="13.820727317357852" guiShape="passenger"/>
<vType id="taxi_v177" accel="0.8" decel="4.5" length="3.0" maxSpeed="10.179856480487306" guiShape="passenger"/>
<vType id="taxi_v178" accel="0.8" decel="4.5" length="3.0" maxSpeed="8.359651817672162" guiShape="passenger"/>
<vType id="taxi_v179" accel="0.8" decel="4.5" length="3.0" maxSpeed="5.64982758833881" guiShape="passenger"/>
<vType id="taxi_v180" accel="0.8" decel="4.5" length="3.0" maxSpeed="15.31938605415778" guiShape="passenger"/>
<vType id="taxi_v181" accel="0.8" decel="4.5" length="3.0" maxSpeed="5.976905738093069" guiShape="passenger"/>
<vType id="taxi_v182" accel="0.8" decel="4.5" length="3.0" maxSpeed="14.660437948663036" guiShape="passenger"/>
<vType id="taxi_v183" accel="0.8" decel="4.5" length="3.0" maxSpeed="16.247001582334143" guiShape="passenger"/>
<vType id="taxi_v184" accel="0.8" decel="4.5" length="3.0" maxSpeed="11.892215528222296" guiShape="passenger"/>
<vType id="taxi_v185" accel="0.8" decel="4.5" length="3.0" maxSpeed="7.461395051357703" guiShape="passenger"/>
<vType id="taxi_v186" accel="0.8" decel="4.5" length="3.0" maxSpeed="15.197862519362987" guiShape="passenger"/>
<vType id="taxi_v187" accel="0.8" decel="4.5" length="3.0" maxSpeed="16.3756061590648" guiShape="passenger"/>
<vType id="taxi_v188" accel="0.8" decel="4.5" length="3.0" maxSpeed="13.378282743686356" guiShape="passenger"/>
<vType id="taxi_v189" accel="0.8" decel="4.5" length="3.0" maxSpeed="11.209899742169874" guiShape="passenger"/>
<vType id="taxi_v190" accel="0.8" decel="4.5" length="3.0" maxSpeed="9.755362905925567" guiShape="passenger"/>
<vType id="taxi_v191" accel="0.8" decel="4.5" length="3.0" maxSpeed="9.410487830729116" guiShape="passenger"/>
<vType id="taxi_v192" accel="0.8" decel="4.5" length="3.0" maxSpeed="7.841901190004382" guiShape="passenger"/>
<vType id="taxi_v193" accel="0.8" decel="4.5" length="3.0" maxSpeed="13.046383802502607" guiShape="passenger"/>
<vType id="taxi_v194" accel="0.8" decel="4.5" length="3.0" maxSpeed="10.366281975594056" guiShape="passenger"/>
<vType id="taxi_v195" accel="0.8" decel="4.5" length="3.0" maxSpeed="7.712529911888437" guiShape="passenger"/>
<vType id="taxi_v196" accel="0.8" decel="4.5" length="3.0" maxSpeed="6.715899309681213" guiShape="passenger"/>
<vType id="taxi_v197" accel="0.8" decel="4.5" length="3.0" maxSpeed="12.955320479715756" guiShape="passenger"/>
<vType id="taxi_v198" accel="0.8" decel="4.5" length="3.0" maxSpeed="8.84538189969613" guiShape="passenger"/>
<vType id="taxi_v199" accel="0.8" decel="4.5" length="3.0" maxSpeed="11.109076855941998" guiShape="passenger"/>
<vType id="taxi_v200" accel="0.8" decel="4.5" length="3.0" maxSpeed="9.170645709589145" guiShape="passenger"/>
<vType id="taxi_v201" accel="0.8" decel="4.5" length="3.0" maxSpeed="15.240535217586093" guiShape="passenger"/>
<vType id="taxi_v202" accel="0.8" decel="4.5" length="3.0" maxSpeed="15.552285125219909" guiShape="passenger"/>
<vType id="taxi_v203" accel="0.8" decel="4.5" length="3.0" maxSpeed="5.756638378422738" guiShape="passenger"/>
<vType id="taxi_v204" accel="0.8" decel="4.5" length="3.0" maxSpeed="7.787358151322854" guiShape="passenger"/>
<vType id="taxi_v205" accel="0.8" decel="4.5" length="3.0" maxSpeed="9.197258070606667" guiShape="passenger"/>
<vType id="taxi_v206" accel="0.8" decel="4.5" length="3.0" maxSpeed="16.52310423578547" guiShape="passenger"/>
<vType id="taxi_v207" accel="0.8" decel="4.5" length="3.0" maxSpeed="14.252496954879385" guiShape="passenger"/>
<vType id="taxi_v208" accel="0.8" decel="4.5" length="3.0" maxSpeed="9.323427381530866" guiShape="passenger"/>
<vType id="taxi_v209" accel="0.8" decel="4.5" length="3.0" maxSpeed="7.922659279505774" guiShape="passenger"/>
<vType id="taxi_v210" accel="0.8" decel="4.5" length="3.0" maxSpeed="13.049740061728624" guiShape="passenger"/>
<vType id="taxi_v211" accel="0.8" decel="4.5" length="3.0" maxSpeed="14.863631670908761" guiShape="passenger"/>
<vType id="taxi_v212" accel="0.8" decel="4.5" length="3.0" maxSpeed="15.913507875198851" guiShape="passenger"/>
<vType id="taxi_v213" accel="0.8" decel="4.5" length="3.0" maxSpeed="9.376252832066715" guiShape="passenger"/>
<vType id="taxi_v214" accel="0.8" decel="4.5" length="3.0" maxSpeed="15.360223829885864" guiShape="passenger"/>
<vType id="taxi_v215" accel="0.8" decel="4.5" length="3.0" maxSpeed="13.19035607798215" guiShape="passenger"/>
<vType id="taxi_v216" accel="0.8" decel="4.5" length="3.0" maxSpeed="10.939059106436467" guiShape="passenger"/>
<vType id="taxi_v217" accel="0.8" decel="4.5" length="3.0" maxSpeed="16.50597614488637" guiShape="passenger"/>
<vType id="taxi_v218" accel="0.8" decel="4.5" length="3.0" maxSpeed="8.162783728026056" guiShape="passenger"/>
<vType id="taxi_v219" accel="0.8" decel="4.5" length="3.0" maxSpeed="13.616533870401275" guiShape="passenger"/>
<vType id="taxi_v220" accel="0.8" decel="4.5" length="3.0" maxSpeed="6.4965159122497225" guiShape="passenger"/>
<vType id="taxi_v221" accel="0.8" decel="4.5" length="3.0" maxSpeed="7.4411394871341585" guiShape="passenger"/>
<vType id="taxi_v222" accel="0.8" decel="4.5" length="3.0" maxSpeed="15.677949657671547" guiShape="passenger"/>
<vType id="taxi_v223" accel="0.8" decel="4.5" length="3.0" maxSpeed="7.9219748018277105" guiShape="passenger"/>
<vType id="taxi_v224" accel="0.8" decel="4.5" length="3.0" maxSpeed="13.990443552635455" guiShape="passenger"/>
<vType id="taxi_v225" accel="0.8" decel="4.5" length="3.0" maxSpeed="12.22476039513148" guiShape="passenger"/>
<vType id="taxi_v226" accel="0.8" decel="4.5" length="3.0" maxSpeed="14.901756279366039" guiShape="passenger"/>
<vType id="taxi_v227" accel="0.8" decel="4.5" length="3.0" maxSpeed="9.645795224595929" guiShape="passenger"/>
<vType id="taxi_v228" accel="0.8" decel="4.5" length="3.0" maxSpeed="9.336645360201091" guiShape="passenger"/>
<vType id="taxi_v229" accel="0.8" decel="4.5" length="3.0" maxSpeed="8.791409544540082" guiShape="passenger"/>
<vType id="taxi_v230" accel="0.8" decel="4.5" length="3.0" maxSpeed="15.193848627803513" guiShape="passenger"/>
<vType id="taxi_v231" accel="0.8" decel="4.5" length="3.0" maxSpeed="12.266691471527361" guiShape="passenger"/>
<vType id="taxi_v232" accel="0.8" decel="4.5" length="3.0" maxSpeed="16.159291879623073" guiShape="passenger"/>
<vType id="taxi_v233" accel="0.8" decel="4.5" length="3.0" maxSpeed="15.414357484552061" guiShape="passenger"/>
<vType id="taxi_v234" accel="0.8" decel="4.5" length="3.0" maxSpeed="7.059483293231836" guiShape="passenger"/>
<vType id="taxi_v235" accel="0.8" decel="4.5" length="3.0" maxSpeed="11.679875605572693" guiShape="passenger"/>
<vType id="taxi_v236" accel="0.8" decel="4.5" length="3.0" maxSpeed="6.714241212939577" guiShape="passenger"/>
<vType id="taxi_v237" accel="0.8" decel="4.5" length="3.0" maxSpeed="5.990475735329713" guiShape="passenger"/>
<vType id="taxi_v238" accel="0.8" decel="4.5" length="3.0" maxSpeed="6.368881354013758" guiShape="passenger"/>
<vType id="taxi_v239" accel="0.8" decel="4.5" length="3.0" maxSpeed="15.17994308604293" guiShape="passenger"/>
<vType id="taxi_v240" accel="0.8" decel="4.5" length="3.0" maxSpeed="14.312677108365481" guiShape="passenger"/>
<vType id="taxi_v241" accel="0.8" decel="4.5" length="3.0" maxSpeed="14.76146125138191" guiShape="passenger"/>
<vType id="taxi_v242" accel="0.8" decel="4.5" length="3.0" maxSpeed="9.343448082785006" guiShape="passenger"/>
<vType id="taxi_v243" accel="0.8" decel="4.5" length="3.0" maxSpeed="12.39117808217648" guiShape="passenger"/>
<vType id="taxi_v244" accel="0.8" decel="4.5" length="3.0" maxSpeed="14.243643679182192" guiShape="passenger"/>
<vType id="taxi_v245" accel="0.8" decel="4.5" length="3.0" maxSpeed="9.756149531874858" guiShape="passenger"/>
<vType id="taxi_v246" accel="0.8" decel="4.5" length="3.0" maxSpeed="11.897781843540988" guiShape="passenger"/>
<vType id="taxi_v247" accel="0.8" decel="4.5" length="3.0" maxSpeed="8.041376547940676" guiShape="passenger"/>
<vType id="taxi_v248" accel="0.8" decel="4.5" length="3.0" maxSpeed="6.463882085302387" guiShape="passenger"/>
<vType id="taxi_v249" accel="0.8" decel="4.5" length="3.0" maxSpeed="8.519273086627265" guiShape="passenger"/>
</vehicleTypes>
</edge>
</net>