<?xml version="1.0" encoding="UTF-8"?>

<!-- generated on 2023-04-20 07:52:01 by Eclipse SUMO GUI Version 1.16.0
-->

<configuration xmlns:xsi="http://www.w3.org/2001/XMLSchema-instance" xsi:noNamespaceSchemaLocation="http://sumo.dlr.de/xsd/sumoConfiguration.xsd">

    <input>
        <net-file value="s2net.net.xml"/>
        <route-files value="s2rou.rou.xml"/>
    </input>

</configuration>
